data_image0
_chemical_formula_structural       Ti2O3Ti2O3Ti2O3Ti2O3Ti2O3Ti2O3Ti2O4Ti2O4Ti2O4Ti2O4Ti2O4Ti2O4Ti2O4Ti2O4Ti2O4Ti2O4Ti2O4Ti2O4Ti2O4Ti2O4Ti2O4Ti2O4Ti2O4Ti2O4Ti2O4Ti2O4Ti2O4Ti2O4Ti2O4Ti2O4Ti2O4Ti2O4Ti2O4Ti2O4Ti2O4Ti2O4Ti2O4Ti2O4Ti2O4Ti2O4Ti2O4Ti2O4Ti2O4Ti2O4Ti2O4Ti2O4Ti2O4Ti2O4Ti2O4Ti2O4Ti2O4Ti2O4Ti2O4Ti2O4Ti2O4Ti2O4Ti2O4Ti2O4Ti2O4Ti2O4Ti2O4Ti2O4Ti2O4Ti2O4Ti2O4Ti2O4Ti2O4Ti2O4Ti2O4Ti2O4Ti2O4Ti2O4Ti2O4Ti2O4Ti2O4Ti2O4Ti2O4Ti2O4Ti2O4Ti2O4Ti2O4Ti2O4Ti2O3Ti2O3Ti2O3Ti2O3Ti2O3Ti2O3Ti2O16H2OH2OH2OH2OH2OH2OH2OH2OH2OH2OH2OH2OH2OH2OH2OH2OH2OH2OH2OH2OH2OH2OH2OH2OH2OH2OH2OH2OH2OH2OH2OH2OH2OH2OH2OH2OH2OTi2O3Ti2O3Ti2O3Ti2O3Ti2O3Ti2O3Ti2O4Ti2O4Ti2O4Ti2O4Ti2O4Ti2O4Ti2O4Ti2O4Ti2O4Ti2O4Ti2O4Ti2O4Ti2O4Ti2O4Ti2O4Ti2O4Ti2O4Ti2O4Ti2O4Ti2O4Ti2O4Ti2O4Ti2O4Ti2O4Ti2O4Ti2O4Ti2O4Ti2O4Ti2O4Ti2O4Ti2O4Ti2O4Ti2O4Ti2O4Ti2O4Ti2O4Ti2O4Ti2O4Ti2O4Ti2O4Ti2O4Ti2O4Ti2O4Ti2O4Ti2O4Ti2O4Ti2O4Ti2O4Ti2O4Ti2O4Ti2O4Ti2O4Ti2O4Ti2O4Ti2O4Ti2O4Ti2O4Ti2O4Ti2O4Ti2O4Ti2O4Ti2O4Ti2O4Ti2O4Ti2O4Ti2O4Ti2O4Ti2O4Ti2O4Ti2O4Ti2O4Ti2O4Ti2O4Ti2O4Ti2O4Ti2O4Ti2O3Ti2O3Ti2O3Ti2O3Ti2O3Ti2O3Ti2O16H2OH2OH2OH2OH2OH2OH2OH2OH2OH2OH2OH2OH2OH2OH2OH2OH2OH2OH2OH2OH2OH2OH2OH2OH2OH2OH2OH2OH2OH2OH2OH2OH2OH2OH2OH2OH2OH2OH2OH2OH2OH2OH2OH2OH2OH2OH2OH2OH2OH2OH2OH2OH2OH2OH2OH2OH2OH2OH2OH2OH2OH2OH2OH2OH2OH2OH2OH2OH2OH2OH2OH2OH2OH2OH2OH2OH2OH2OH2OH2OH2OH2OH2OH2OH2OH2OH2OH2OH2OH2OH2OH2OH2OH2OH2OH2OH2OH2OH2OH2OH2OH2OH2OH2OH2OH2OH2OH2OH2OH2OH2OH2OH2OH2OH2OH2OH2OH2OH2OH2OH2OH2OH2OH2OH2OH2OH2OH2OH2OH2OH2OH2OH2OH2OH2OH2OH2OH2OH2OH2OH2OH2OH2OH2OH2OH2OH2OH2OH2OH2OH2OH2OH2OH2OH2OH2OH2OH2OH2OH2OH2OH2OH2OH2OH2OH2OH2OH2OH2OH2OH2OH2OH2OH2OH2OH2OH2OH2OH2OH2OH2OH2OH2OH2OH2OH2OH2OH2OH2OH2OH2OH2OH2OH2OH2OH2OH2OH2OH2OH2OH2OH2OH2OH2OH2OH2OH2OH2OH2OH2OH2OH2OH2OH2OH2OH2OH2OH2OH2OH2OH2OH2OH2OH2OH2OH2OH2OH2OH2OH2OH2OH2OH2OH2OH2OH2OH2OH2OH2OH2OH2OH2OH2OH2OH2OH2OH2OH2OH2OH2OH2OH2OH2OH2OH2OH2OH2OH2OH2OH2OH2OH2OH2OH2OH2OH2OH2OH2OH2OH2OH2OH2OH2OH2OH2OH2OH2OH2OH2OH2OH2OH2OH2OH2OH2OH2OH2OH2OH2OH2OH2OH2OH2OH2OH2OH2OH2OH2OH2OH2OH2OH2OH2OH2OH2OH2OH2OH2OH2OH2OH2OH2OH2OH2OH2OH2OH2OH2OH2OH2OH2OH2OH2OH2OH2OH2OH2OH2OH2OH2OH2OH2OH2OH2OH2OH2OH2OH2OH2OH2OH2OH2OH2OH2OH2OH2OH2OH2OH2OH2OH2OH2OH2OH2OH2OH2OH2OH2OH2OH2OH2OH2OH2OH2OH2OH2OH2OH2OH2OH2OH2OH2OH2OH2OH2OH2OH2OH2OH2OH2OH2OH2OH2OH2OH2OH2OH2OH2OH2OH2OH2OH2OH2OH2OH2OH2OH2OH2OH2OH2OH2OH2OH2OH2OH2OH2OH2OH2OH2OH2OH2OH2OH2OH2OH2OH2OH2OH2OH2OH2OH2OH2OH2OH2OH2OH2OH2OH2OH2OH2OH2OH2OH2OH2OH2OH2OH2OH2OH2OH2OH2OH2OH2OH2OH2OH2OH2OH2OH2OH2OH2OH2OH2OH2OH2OH2OH2OH2OH2OH2OH2OH2OH2OH2OH2OH2OH2OH2OH2OH2OH2OH2OH2OH2OH2OH2OH2OH2OH2OH2OH2OH2OH2OH2OH2OH2OH2OH2OH2OH2OH2OH2OH2OH2OH2OH2OH2OH2OH2OH2OH2OH2OH2OH2OH2OH2OH2OH2OH2OH2OH2OH2OH2OH2OH2OH2OH2OH2OH2OH2OH2OH2OH2OH2OH2OH2OH2OH2OH2OH2OH2OH2OH2OH2OH2OH2OH2OH2OH2OH2OH2OH2OH2OH2OH2OH2OH2OH2OH2OH2OH2OH2OH2OH2OH2OH2OH2OH2OH2OH2OH2OH2OH2OH2OH2OH2OH2OH2OH2OH2OH2OH2OH2OH2OH2OH2OH2OH2OH2OH2OH2OH2OH2OH2OH2OH2OH2OH2OH2OH2OH2OH2OH2OH2OH2OH2OH2OH2OH2OH2OH2OH2OH2OH2OH2OH2OH2OH2OH2OH2OH2OH2OH2O2H2OH2OH2OH2OH2OH2OH2OH2OH2OH2OH2OH2OH2OH2OH2OH2OH2OH2OH2OH2OH2OH2OH2OH2OH2OH2OH2OH2OH2OH2OH2OH2OH2OH2OH2OH2OH2OH2OH2OH2OH2OH2OH2OH2OH2OH2OH2OH2OH2OH2OH2OH2OH2OH2OH2OH2OH2OH2OH2OH2OH2OH2OH2OH2OH2OH2OH2OH2OH2OH2OH2OH2OH2OH2
_chemical_formula_sum              "Ti356 O1436 H1448"
_cell_length_a       50.5123
_cell_length_b       14.2754
_cell_length_c       47.8433
_cell_angle_alpha    90
_cell_angle_beta     90
_cell_angle_gamma    69.2476

_space_group_name_H-M_alt    "P 1"
_space_group_IT_number       1

loop_
  _space_group_symop_operation_xyz
  'x, y, z'

loop_
  _atom_site_type_symbol
  _atom_site_label
  _atom_site_symmetry_multiplicity
  _atom_site_fract_x
  _atom_site_fract_y
  _atom_site_fract_z
  _atom_site_occupancy
  Ti  Ti1       1.0  0.95553  0.22614  0.06023  1.0000
  Ti  Ti2       1.0  0.95759  0.99829  0.06308  1.0000
  O   O1        1.0  0.93954  0.39609  0.05996  1.0000
  O   O2        1.0  0.91748  0.07083  0.06160  1.0000
  O   O3        1.0  0.52662  0.13920  0.06650  1.0000
  Ti  Ti3       1.0  0.89532  0.23215  0.06273  1.0000
  Ti  Ti4       1.0  0.90314  0.47241  0.06531  1.0000
  O   O4        1.0  0.88410  0.37021  0.06864  1.0000
  O   O5        1.0  0.86006  0.06509  0.06464  1.0000
  O   O6        1.0  0.47219  0.12570  0.06933  1.0000
  Ti  Ti5       1.0  0.84259  0.20022  0.06643  1.0000
  Ti  Ti6       1.0  0.84620  0.46375  0.07384  1.0000
  O   O7        1.0  0.82824  0.36385  0.07402  1.0000
  O   O8        1.0  0.80317  0.05043  0.07234  1.0000
  O   O9        1.0  0.41403  0.10856  0.06971  1.0000
  Ti  Ti7       1.0  0.78260  0.21300  0.07387  1.0000
  Ti  Ti8       1.0  0.78855  0.44799  0.07630  1.0000
  O   O10       1.0  0.76840  0.35535  0.07575  1.0000
  O   O11       1.0  0.74781  0.03219  0.07677  1.0000
  O   O12       1.0  0.35663  0.08040  0.07756  1.0000
  Ti  Ti9       1.0  0.73079  0.17656  0.07575  1.0000
  Ti  Ti10      1.0  0.72937  0.43851  0.07828  1.0000
  O   O13       1.0  0.71072  0.33751  0.07767  1.0000
  O   O14       1.0  0.69058  0.02022  0.07315  1.0000
  O   O15       1.0  0.30010  0.05659  0.08219  1.0000
  Ti  Ti11      1.0  0.67264  0.17153  0.07476  1.0000
  Ti  Ti12      1.0  0.67188  0.43221  0.08284  1.0000
  O   O16       1.0  0.65347  0.32372  0.07797  1.0000
  O   O17       1.0  0.63170  0.01320  0.08044  1.0000
  O   O18       1.0  0.24211  0.05907  0.08236  1.0000
  Ti  Ti13      1.0  0.61587  0.15889  0.08314  1.0000
  Ti  Ti14      1.0  0.61802  0.40326  0.08859  1.0000
  O   O19       1.0  0.59763  0.31100  0.08441  1.0000
  O   O20       1.0  0.57499  0.49874  0.09010  1.0000
  O   O21       1.0  0.18427  0.04671  0.08984  1.0000
  O   O22       1.0  0.98684  0.24084  0.08618  1.0000
  Ti  Ti15      1.0  0.55707  0.14227  0.08970  1.0000
  Ti  Ti16      1.0  0.55908  0.39601  0.09453  1.0000
  O   O23       1.0  0.53793  0.28735  0.09214  1.0000
  O   O24       1.0  0.51904  0.47695  0.09319  1.0000
  O   O25       1.0  0.13023  0.04216  0.09568  1.0000
  O   O26       1.0  0.93418  0.22545  0.09098  1.0000
  Ti  Ti17      1.0  0.49936  0.13416  0.09197  1.0000
  Ti  Ti18      1.0  0.50089  0.38021  0.09661  1.0000
  O   O27       1.0  0.48137  0.28015  0.09301  1.0000
  O   O28       1.0  0.46233  0.46633  0.09708  1.0000
  O   O29       1.0  0.07513  0.01739  0.09877  1.0000
  O   O30       1.0  0.87746  0.21611  0.09578  1.0000
  Ti  Ti19      1.0  0.44319  0.11744  0.09281  1.0000
  Ti  Ti20      1.0  0.44279  0.36585  0.10112  1.0000
  O   O31       1.0  0.42721  0.26407  0.09352  1.0000
  O   O32       1.0  0.40357  0.44831  0.10036  1.0000
  O   O33       1.0  0.01847  0.99983  0.09941  1.0000
  O   O34       1.0  0.81768  0.20831  0.09767  1.0000
  Ti  Ti21      1.0  0.38322  0.09775  0.09851  1.0000
  Ti  Ti22      1.0  0.38702  0.34008  0.09962  1.0000
  O   O35       1.0  0.36983  0.24353  0.09749  1.0000
  O   O36       1.0  0.34863  0.43339  0.09985  1.0000
  O   O37       1.0  0.96005  0.49929  0.10180  1.0000
  O   O38       1.0  0.75619  0.19282  0.10360  1.0000
  Ti  Ti23      1.0  0.32675  0.08751  0.10362  1.0000
  Ti  Ti24      1.0  0.33043  0.33557  0.10635  1.0000
  O   O39       1.0  0.31074  0.23026  0.10695  1.0000
  O   O40       1.0  0.29063  0.41765  0.10522  1.0000
  O   O41       1.0  0.90428  0.47619  0.10632  1.0000
  O   O42       1.0  0.70266  0.17671  0.10413  1.0000
  Ti  Ti25      1.0  0.27192  0.06766  0.10950  1.0000
  Ti  Ti26      1.0  0.27274  0.31996  0.11138  1.0000
  O   O43       1.0  0.25712  0.21355  0.10800  1.0000
  O   O44       1.0  0.23461  0.40202  0.11073  1.0000
  O   O45       1.0  0.84624  0.47807  0.11130  1.0000
  O   O46       1.0  0.64667  0.15555  0.11013  1.0000
  Ti  Ti27      1.0  0.21509  0.05336  0.10746  1.0000
  Ti  Ti28      1.0  0.21904  0.29267  0.11434  1.0000
  O   O47       1.0  0.19879  0.20478  0.11407  1.0000
  O   O48       1.0  0.18010  0.38510  0.11007  1.0000
  O   O49       1.0  0.78969  0.45737  0.11592  1.0000
  O   O50       1.0  0.58837  0.14006  0.11383  1.0000
  Ti  Ti29      1.0  0.16215  0.03108  0.12036  1.0000
  Ti  Ti30      1.0  0.15987  0.28887  0.11920  1.0000
  O   O51       1.0  0.14419  0.18810  0.12233  1.0000
  O   O52       1.0  0.12097  0.37447  0.11605  1.0000
  O   O53       1.0  0.73265  0.44284  0.11947  1.0000
  O   O54       1.0  0.53359  0.11957  0.11901  1.0000
  Ti  Ti31      1.0  0.10554  0.02554  0.12478  1.0000
  Ti  Ti32      1.0  0.10397  0.27171  0.12755  1.0000
  O   O55       1.0  0.08673  0.17157  0.12761  1.0000
  O   O56       1.0  0.06440  0.36150  0.12295  1.0000
  O   O57       1.0  0.67523  0.41140  0.12279  1.0000
  O   O58       1.0  0.47308  0.12485  0.12387  1.0000
  Ti  Ti33      1.0  0.04943  0.00576  0.12170  1.0000
  Ti  Ti34      1.0  0.04759  0.25155  0.12936  1.0000
  O   O59       1.0  0.03038  0.15747  0.12592  1.0000
  O   O60       1.0  0.00779  0.34784  0.12833  1.0000
  O   O61       1.0  0.61925  0.39717  0.12827  1.0000
  O   O62       1.0  0.41964  0.10634  0.12640  1.0000
  Ti  Ti35      1.0  0.99352  0.00645  0.12665  1.0000
  Ti  Ti36      1.0  0.98959  0.25545  0.12367  1.0000
  O   O63       1.0  0.97407  0.14744  0.13120  1.0000
  O   O64       1.0  0.94854  0.33650  0.13241  1.0000
  O   O65       1.0  0.56061  0.38700  0.13287  1.0000
  O   O66       1.0  0.36054  0.09082  0.13185  1.0000
  Ti  Ti37      1.0  0.93510  0.49001  0.13473  1.0000
  Ti  Ti38      1.0  0.93212  0.22966  0.13066  1.0000
  O   O67       1.0  0.91790  0.13072  0.13346  1.0000
  O   O68       1.0  0.89349  0.31695  0.13614  1.0000
  O   O69       1.0  0.50279  0.38608  0.13724  1.0000
  O   O70       1.0  0.30237  0.07615  0.13484  1.0000
  Ti  Ti39      1.0  0.88014  0.46905  0.13438  1.0000
  Ti  Ti40      1.0  0.87575  0.22239  0.13595  1.0000
  O   O71       1.0  0.86065  0.11394  0.13984  1.0000
  O   O72       1.0  0.83861  0.30698  0.13863  1.0000
  O   O73       1.0  0.44713  0.35939  0.13875  1.0000
  O   O74       1.0  0.24734  0.05927  0.13717  1.0000
  Ti  Ti41      1.0  0.82112  0.45835  0.14447  1.0000
  Ti  Ti42      1.0  0.81949  0.20084  0.13842  1.0000
  O   O75       1.0  0.80389  0.10206  0.14080  1.0000
  O   O76       1.0  0.78096  0.29590  0.14067  1.0000
  O   O77       1.0  0.39057  0.34367  0.14140  1.0000
  O   O78       1.0  0.19172  0.04703  0.14420  1.0000
  Ti  Ti43      1.0  0.76403  0.43725  0.14326  1.0000
  Ti  Ti44      1.0  0.76227  0.18686  0.14831  1.0000
  O   O79       1.0  0.74585  0.08635  0.14276  1.0000
  O   O80       1.0  0.72410  0.27623  0.14670  1.0000
  O   O81       1.0  0.33675  0.31748  0.14544  1.0000
  O   O82       1.0  0.13295  0.01858  0.14999  1.0000
  Ti  Ti45      1.0  0.70514  0.43389  0.14909  1.0000
  Ti  Ti46      1.0  0.70525  0.17440  0.14289  1.0000
  O   O83       1.0  0.69064  0.07151  0.15057  1.0000
  O   O84       1.0  0.66803  0.26069  0.14965  1.0000
  O   O85       1.0  0.27749  0.30575  0.15317  1.0000
  O   O86       1.0  0.07838  0.01398  0.15191  1.0000
  Ti  Ti47      1.0  0.64960  0.39935  0.15027  1.0000
  Ti  Ti48      1.0  0.64970  0.15301  0.14819  1.0000
  O   O87       1.0  0.63003  0.06440  0.15576  1.0000
  O   O88       1.0  0.60634  0.25089  0.15345  1.0000
  O   O89       1.0  0.21987  0.29959  0.15386  1.0000
  O   O90       1.0  0.02161  0.98817  0.15525  1.0000
  Ti  Ti49      1.0  0.59031  0.39697  0.15897  1.0000
  Ti  Ti50      1.0  0.59202  0.14977  0.15379  1.0000
  O   O91       1.0  0.57497  0.04285  0.16091  1.0000
  O   O92       1.0  0.55036  0.24255  0.15927  1.0000
  O   O93       1.0  0.15944  0.29838  0.15956  1.0000
  O   O94       1.0  0.96341  0.49083  0.15623  1.0000
  Ti  Ti51      1.0  0.53398  0.38346  0.16280  1.0000
  Ti  Ti52      1.0  0.53606  0.13523  0.16025  1.0000
  O   O95       1.0  0.51630  0.03320  0.16172  1.0000
  O   O96       1.0  0.49672  0.22773  0.16511  1.0000
  O   O97       1.0  0.10297  0.27881  0.16466  1.0000
  O   O98       1.0  0.90578  0.47962  0.15986  1.0000
  Ti  Ti53      1.0  0.47816  0.37162  0.16652  1.0000
  Ti  Ti54      1.0  0.47892  0.11958  0.16440  1.0000
  O   O99       1.0  0.46341  0.01105  0.16572  1.0000
  O   O100      1.0  0.44048  0.20609  0.17000  1.0000
  O   O101      1.0  0.04972  0.26111  0.16721  1.0000
  O   O102      1.0  0.85243  0.44834  0.16477  1.0000
  Ti  Ti55      1.0  0.42194  0.34146  0.16709  1.0000
  Ti  Ti56      1.0  0.42119  0.10267  0.16360  1.0000
  O   O103      1.0  0.40529  0.99717  0.17068  1.0000
  O   O104      1.0  0.38337  0.18686  0.16957  1.0000
  O   O105      1.0  0.99612  0.22487  0.17251  1.0000
  O   O106      1.0  0.79325  0.44990  0.16981  1.0000
  Ti  Ti57      1.0  0.36450  0.33954  0.17282  1.0000
  Ti  Ti58      1.0  0.36645  0.08586  0.17160  1.0000
  O   O107      1.0  0.34900  0.47962  0.17684  1.0000
  O   O108      1.0  0.32606  0.16801  0.17411  1.0000
  O   O109      1.0  0.93757  0.21588  0.17524  1.0000
  O   O110      1.0  0.73820  0.42555  0.17316  1.0000
  Ti  Ti59      1.0  0.30806  0.31433  0.17520  1.0000
  Ti  Ti60      1.0  0.30856  0.06713  0.17404  1.0000
  O   O111      1.0  0.29210  0.46008  0.18072  1.0000
  O   O112      1.0  0.26874  0.15429  0.17913  1.0000
  O   O113      1.0  0.88027  0.21429  0.17768  1.0000
  O   O114      1.0  0.68068  0.41690  0.17584  1.0000
  Ti  Ti61      1.0  0.25326  0.30156  0.18405  1.0000
  Ti  Ti62      1.0  0.25044  0.05574  0.17807  1.0000
  O   O115      1.0  0.23360  0.45149  0.18534  1.0000
  O   O116      1.0  0.21134  0.13864  0.18068  1.0000
  O   O117      1.0  0.81946  0.21101  0.18265  1.0000
  O   O118      1.0  0.61950  0.39972  0.18117  1.0000
  Ti  Ti63      1.0  0.19446  0.29490  0.18052  1.0000
  Ti  Ti64      1.0  0.19237  0.03692  0.18418  1.0000
  O   O119      1.0  0.17809  0.43604  0.18886  1.0000
  O   O120      1.0  0.15331  0.12640  0.18645  1.0000
  O   O121      1.0  0.77038  0.17787  0.18646  1.0000
  O   O122      1.0  0.56348  0.39156  0.18650  1.0000
  Ti  Ti65      1.0  0.13857  0.26990  0.19159  1.0000
  Ti  Ti66      1.0  0.13792  0.02111  0.19142  1.0000
  O   O123      1.0  0.11936  0.42932  0.19232  1.0000
  O   O124      1.0  0.10001  0.11304  0.19313  1.0000
  O   O125      1.0  0.70908  0.17548  0.19094  1.0000
  O   O126      1.0  0.50791  0.37432  0.18986  1.0000
  Ti  Ti67      1.0  0.08083  0.25587  0.19422  1.0000
  Ti  Ti68      1.0  0.08136  0.00898  0.19246  1.0000
  O   O127      1.0  0.06261  0.40971  0.19657  1.0000
  O   O128      1.0  0.04404  0.09804  0.19540  1.0000
  O   O129      1.0  0.65161  0.16450  0.19412  1.0000
  O   O130      1.0  0.45080  0.36080  0.19343  1.0000
  Ti  Ti69      1.0  0.02203  0.24746  0.19680  1.0000
  Ti  Ti70      1.0  0.02333  0.00188  0.19288  1.0000
  O   O131      1.0  0.00583  0.39071  0.19984  1.0000
  O   O132      1.0  0.98606  0.08123  0.20165  1.0000
  O   O133      1.0  0.59546  0.14537  0.19704  1.0000
  O   O134      1.0  0.39168  0.34622  0.19692  1.0000
  Ti  Ti71      1.0  0.96403  0.23082  0.19650  1.0000
  Ti  Ti72      1.0  0.96796  0.48396  0.20300  1.0000
  O   O135      1.0  0.94954  0.37781  0.19727  1.0000
  O   O136      1.0  0.92910  0.07106  0.20612  1.0000
  O   O137      1.0  0.53797  0.13295  0.20439  1.0000
  O   O138      1.0  0.33884  0.31894  0.20054  1.0000
  Ti  Ti73      1.0  0.91038  0.20960  0.20570  1.0000
  Ti  Ti74      1.0  0.91074  0.46832  0.20421  1.0000
  O   O139      1.0  0.89423  0.36361  0.20530  1.0000
  O   O140      1.0  0.87029  0.05703  0.20583  1.0000
  O   O141      1.0  0.48333  0.11322  0.20594  1.0000
  O   O142      1.0  0.28377  0.29849  0.20541  1.0000
  Ti  Ti75      1.0  0.85134  0.20747  0.20268  1.0000
  Ti  Ti76      1.0  0.85507  0.44576  0.20597  1.0000
  O   O143      1.0  0.83641  0.34879  0.20435  1.0000
  O   O144      1.0  0.81138  0.04381  0.21157  1.0000
  O   O145      1.0  0.42351  0.10277  0.21115  1.0000
  O   O146      1.0  0.22279  0.28523  0.20822  1.0000
  Ti  Ti77      1.0  0.79494  0.19045  0.21573  1.0000
  Ti  Ti78      1.0  0.79419  0.43637  0.21243  1.0000
  O   O147      1.0  0.77723  0.33544  0.21414  1.0000
  O   O148      1.0  0.75582  0.02858  0.21242  1.0000
  O   O149      1.0  0.36816  0.08541  0.21498  1.0000
  O   O150      1.0  0.16687  0.28511  0.21301  1.0000
  Ti  Ti79      1.0  0.73703  0.17452  0.21822  1.0000
  Ti  Ti80      1.0  0.73797  0.42446  0.21380  1.0000
  O   O151      1.0  0.72103  0.31943  0.21444  1.0000
  O   O152      1.0  0.70098  0.00966  0.21677  1.0000
  O   O153      1.0  0.30855  0.05683  0.21661  1.0000
  O   O154      1.0  0.10956  0.26558  0.21673  1.0000
  Ti  Ti81      1.0  0.68242  0.15339  0.21888  1.0000
  Ti  Ti82      1.0  0.68186  0.40554  0.21825  1.0000
  O   O155      1.0  0.66516  0.30747  0.21796  1.0000
  O   O156      1.0  0.64364  0.99543  0.22328  1.0000
  O   O157      1.0  0.25038  0.05585  0.22399  1.0000
  O   O158      1.0  0.05460  0.25590  0.22166  1.0000
  Ti  Ti83      1.0  0.62587  0.13228  0.22285  1.0000
  Ti  Ti84      1.0  0.62649  0.39458  0.22341  1.0000
  O   O159      1.0  0.60848  0.29940  0.22176  1.0000
  O   O160      1.0  0.58889  0.48510  0.22803  1.0000
  O   O161      1.0  0.19405  0.04059  0.22673  1.0000
  O   O162      1.0  0.99961  0.23115  0.22720  1.0000
  Ti  Ti85      1.0  0.56462  0.14231  0.22810  1.0000
  Ti  Ti86      1.0  0.56958  0.37257  0.22952  1.0000
  O   O163      1.0  0.54774  0.28661  0.22941  1.0000
  O   O164      1.0  0.52830  0.47132  0.23106  1.0000
  O   O165      1.0  0.13893  0.02293  0.23167  1.0000
  O   O166      1.0  0.94338  0.22615  0.23076  1.0000
  Ti  Ti87      1.0  0.50923  0.12647  0.23506  1.0000
  Ti  Ti88      1.0  0.51016  0.37880  0.23416  1.0000
  O   O167      1.0  0.49368  0.26750  0.23255  1.0000
  O   O168      1.0  0.47067  0.45655  0.23569  1.0000
  O   O169      1.0  0.08451  0.99791  0.23591  1.0000
  O   O170      1.0  0.88253  0.20491  0.23055  1.0000
  Ti  Ti89      1.0  0.45548  0.10272  0.23219  1.0000
  Ti  Ti90      1.0  0.45370  0.35595  0.23335  1.0000
  O   O171      1.0  0.43596  0.25381  0.23628  1.0000
  O   O172      1.0  0.41526  0.43334  0.23841  1.0000
  O   O173      1.0  0.02401  0.49636  0.23934  1.0000
  O   O174      1.0  0.82826  0.19421  0.23592  1.0000
  Ti  Ti91      1.0  0.39704  0.08568  0.23885  1.0000
  Ti  Ti92      1.0  0.39587  0.33509  0.23778  1.0000
  O   O175      1.0  0.38007  0.23537  0.24320  1.0000
  O   O176      1.0  0.35631  0.41796  0.24264  1.0000
  O   O177      1.0  0.96790  0.48545  0.24208  1.0000
  O   O178      1.0  0.76977  0.17713  0.23950  1.0000
  Ti  Ti93      1.0  0.34189  0.06894  0.24191  1.0000
  Ti  Ti94      1.0  0.33862  0.32685  0.24024  1.0000
  O   O179      1.0  0.32212  0.22144  0.24568  1.0000
  O   O180      1.0  0.30071  0.40759  0.24827  1.0000
  O   O181      1.0  0.91135  0.47387  0.24387  1.0000
  O   O182      1.0  0.71342  0.15795  0.24480  1.0000
  Ti  Ti95      1.0  0.28268  0.05752  0.24653  1.0000
  Ti  Ti96      1.0  0.28353  0.30207  0.25172  1.0000
  O   O183      1.0  0.26555  0.20406  0.24726  1.0000
  O   O184      1.0  0.24599  0.38918  0.24658  1.0000
  O   O185      1.0  0.85666  0.45353  0.24875  1.0000
  O   O186      1.0  0.65647  0.14830  0.24715  1.0000
  Ti  Ti97      1.0  0.22463  0.04464  0.25352  1.0000
  Ti  Ti98      1.0  0.22704  0.28604  0.24733  1.0000
  O   O187      1.0  0.21026  0.19421  0.25426  1.0000
  O   O188      1.0  0.18797  0.37426  0.25244  1.0000
  O   O189      1.0  0.80246  0.42916  0.25182  1.0000
  O   O190      1.0  0.60112  0.12491  0.25214  1.0000
  Ti  Ti99      1.0  0.16955  0.02234  0.25862  1.0000
  Ti  Ti100     1.0  0.16906  0.28274  0.25347  1.0000
  O   O191      1.0  0.15179  0.17327  0.25600  1.0000
  O   O192      1.0  0.13058  0.35918  0.25905  1.0000
  O   O193      1.0  0.74001  0.42939  0.25540  1.0000
  O   O194      1.0  0.54183  0.12544  0.25682  1.0000
  Ti  Ti101     1.0  0.11325  0.00258  0.26095  1.0000
  Ti  Ti102     1.0  0.11476  0.25437  0.26015  1.0000
  O   O195      1.0  0.09520  0.15905  0.26236  1.0000
  O   O196      1.0  0.07494  0.35386  0.26393  1.0000
  O   O197      1.0  0.68325  0.41078  0.26052  1.0000
  O   O198      1.0  0.48377  0.10825  0.26165  1.0000
  Ti  Ti103     1.0  0.05901  0.99193  0.26528  1.0000
  Ti  Ti104     1.0  0.05720  0.24710  0.26292  1.0000
  O   O199      1.0  0.03934  0.15121  0.26560  1.0000
  O   O200      1.0  0.01793  0.34226  0.26583  1.0000
  O   O201      1.0  0.62646  0.38760  0.26452  1.0000
  O   O202      1.0  0.43030  0.07814  0.26473  1.0000
  Ti  Ti105     1.0  0.00324  0.48256  0.26864  1.0000
  Ti  Ti106     1.0  0.99974  0.23364  0.26487  1.0000
  O   O203      1.0  0.98103  0.13720  0.27144  1.0000
  O   O204      1.0  0.95952  0.33077  0.26971  1.0000
  O   O205      1.0  0.56994  0.38366  0.26908  1.0000
  O   O206      1.0  0.37032  0.07348  0.26669  1.0000
  Ti  Ti107     1.0  0.94354  0.47303  0.27193  1.0000
  Ti  Ti108     1.0  0.94209  0.22351  0.27112  1.0000
  O   O207      1.0  0.92658  0.12463  0.27096  1.0000
  O   O208      1.0  0.90104  0.31060  0.27313  1.0000
  O   O209      1.0  0.51520  0.36476  0.27206  1.0000
  O   O210      1.0  0.31306  0.06512  0.27086  1.0000
  Ti  Ti109     1.0  0.88896  0.45387  0.27375  1.0000
  Ti  Ti110     1.0  0.88397  0.21099  0.27530  1.0000
  O   O211      1.0  0.86933  0.10514  0.27841  1.0000
  O   O212      1.0  0.84680  0.29640  0.28006  1.0000
  O   O213      1.0  0.45672  0.35386  0.27678  1.0000
  O   O214      1.0  0.25515  0.04621  0.27706  1.0000
  Ti  Ti111     1.0  0.83141  0.45243  0.27507  1.0000
  Ti  Ti112     1.0  0.82914  0.18981  0.27743  1.0000
  O   O215      1.0  0.81200  0.08603  0.27986  1.0000
  O   O216      1.0  0.78912  0.27709  0.27712  1.0000
  O   O217      1.0  0.39950  0.34411  0.27905  1.0000
  O   O218      1.0  0.19766  0.03594  0.28065  1.0000
  Ti  Ti113     1.0  0.77517  0.41938  0.27861  1.0000
  Ti  Ti114     1.0  0.77226  0.16802  0.28457  1.0000
  O   O219      1.0  0.75695  0.07034  0.28539  1.0000
  O   O220      1.0  0.73406  0.26291  0.28427  1.0000
  O   O221      1.0  0.34284  0.32445  0.28484  1.0000
  O   O222      1.0  0.14174  0.02879  0.28661  1.0000
  Ti  Ti115     1.0  0.71633  0.40622  0.28139  1.0000
  Ti  Ti116     1.0  0.71450  0.16894  0.28966  1.0000
  O   O223      1.0  0.69723  0.06057  0.29017  1.0000
  O   O224      1.0  0.67567  0.25552  0.28906  1.0000
  O   O225      1.0  0.28410  0.30891  0.28921  1.0000
  O   O226      1.0  0.08703  0.99942  0.28915  1.0000
  Ti  Ti117     1.0  0.65726  0.40393  0.29155  1.0000
  Ti  Ti118     1.0  0.65853  0.14973  0.29115  1.0000
  O   O227      1.0  0.64086  0.04271  0.29051  1.0000
  O   O228      1.0  0.61620  0.23675  0.29200  1.0000
  O   O229      1.0  0.22914  0.29524  0.29358  1.0000
  O   O230      1.0  0.03110  0.48790  0.29455  1.0000
  Ti  Ti119     1.0  0.60106  0.38621  0.29384  1.0000
  Ti  Ti120     1.0  0.60241  0.12905  0.29105  1.0000
  O   O231      1.0  0.58341  0.03237  0.29493  1.0000
  O   O232      1.0  0.55824  0.22700  0.29349  1.0000
  O   O233      1.0  0.17062  0.26888  0.29740  1.0000
  O   O234      1.0  0.97266  0.48323  0.29649  1.0000
  Ti  Ti121     1.0  0.54380  0.36064  0.29740  1.0000
  Ti  Ti122     1.0  0.54325  0.11733  0.30015  1.0000
  O   O235      1.0  0.52641  0.01739  0.30053  1.0000
  O   O236      1.0  0.50380  0.20930  0.30104  1.0000
  O   O237      1.0  0.11537  0.25643  0.30328  1.0000
  O   O238      1.0  0.91421  0.46756  0.29731  1.0000
  Ti  Ti123     1.0  0.48375  0.36156  0.30112  1.0000
  Ti  Ti124     1.0  0.48530  0.10625  0.30530  1.0000
  O   O239      1.0  0.46938  0.00593  0.30910  1.0000
  O   O240      1.0  0.44707  0.19815  0.30185  1.0000
  O   O241      1.0  0.05655  0.25227  0.30681  1.0000
  O   O242      1.0  0.85840  0.45064  0.30264  1.0000
  Ti  Ti125     1.0  0.43025  0.33841  0.30334  1.0000
  Ti  Ti126     1.0  0.42942  0.08206  0.30345  1.0000
  O   O243      1.0  0.41103  0.49694  0.30577  1.0000
  O   O244      1.0  0.38793  0.17543  0.30810  1.0000
  O   O245      1.0  0.00201  0.23073  0.31056  1.0000
  O   O246      1.0  0.80135  0.43510  0.30342  1.0000
  Ti  Ti127     1.0  0.37263  0.33727  0.30726  1.0000
  Ti  Ti128     1.0  0.37075  0.08329  0.31370  1.0000
  O   O247      1.0  0.35647  0.47312  0.31215  1.0000
  O   O248      1.0  0.33230  0.16080  0.31125  1.0000
  O   O249      1.0  0.94302  0.22413  0.31307  1.0000
  O   O250      1.0  0.74556  0.41799  0.30847  1.0000
  Ti  Ti129     1.0  0.31724  0.31743  0.31226  1.0000
  Ti  Ti130     1.0  0.31619  0.05616  0.31933  1.0000
  O   O251      1.0  0.30114  0.45344  0.31585  1.0000
  O   O252      1.0  0.27475  0.14657  0.31796  1.0000
  O   O253      1.0  0.88998  0.20634  0.31494  1.0000
  O   O254      1.0  0.68729  0.40312  0.31253  1.0000
  Ti  Ti131     1.0  0.25698  0.30003  0.31916  1.0000
  Ti  Ti132     1.0  0.25927  0.04837  0.31920  1.0000
  O   O255      1.0  0.24162  0.44927  0.31920  1.0000
  O   O256      1.0  0.21848  0.13085  0.32082  1.0000
  O   O257      1.0  0.82953  0.20132  0.31842  1.0000
  O   O258      1.0  0.63038  0.39918  0.32007  1.0000
  Ti  Ti133     1.0  0.19837  0.28797  0.31699  1.0000
  Ti  Ti134     1.0  0.20291  0.02950  0.32770  1.0000
  O   O259      1.0  0.18477  0.42694  0.32153  1.0000
  O   O260      1.0  0.16372  0.11490  0.32653  1.0000
  O   O261      1.0  0.77433  0.18652  0.32313  1.0000
  O   O262      1.0  0.57466  0.37147  0.32163  1.0000
  Ti  Ti135     1.0  0.14245  0.26694  0.32753  1.0000
  Ti  Ti136     1.0  0.14631  0.01925  0.32835  1.0000
  O   O263      1.0  0.12979  0.41449  0.32842  1.0000
  O   O264      1.0  0.10674  0.09624  0.33166  1.0000
  O   O265      1.0  0.71750  0.15959  0.32678  1.0000
  O   O266      1.0  0.51836  0.36062  0.32758  1.0000
  Ti  Ti137     1.0  0.08715  0.24912  0.32989  1.0000
  Ti  Ti138     1.0  0.08910  0.99763  0.33587  1.0000
  O   O267      1.0  0.07134  0.39801  0.32914  1.0000
  O   O268      1.0  0.04950  0.09405  0.33646  1.0000
  O   O269      1.0  0.66255  0.14859  0.33222  1.0000
  O   O270      1.0  0.46064  0.34943  0.33041  1.0000
  Ti  Ti139     1.0  0.02866  0.24533  0.33536  1.0000
  Ti  Ti140     1.0  0.02944  0.49341  0.33595  1.0000
  O   O271      1.0  0.01346  0.38769  0.33780  1.0000
  O   O272      1.0  0.99196  0.07174  0.33644  1.0000
  O   O273      1.0  0.60123  0.14307  0.33463  1.0000
  O   O274      1.0  0.40581  0.32087  0.33638  1.0000
  Ti  Ti141     1.0  0.97315  0.21887  0.33382  1.0000
  Ti  Ti142     1.0  0.97458  0.47211  0.33657  1.0000
  O   O275      1.0  0.95762  0.37317  0.33815  1.0000
  O   O276      1.0  0.93593  0.05560  0.34198  1.0000
  O   O277      1.0  0.54722  0.11320  0.33983  1.0000
  O   O278      1.0  0.34574  0.30974  0.33912  1.0000
  Ti  Ti143     1.0  0.91426  0.20855  0.34187  1.0000
  Ti  Ti144     1.0  0.91933  0.45431  0.34668  1.0000
  O   O279      1.0  0.90032  0.36448  0.34363  1.0000
  O   O280      1.0  0.87704  0.04976  0.34159  1.0000
  O   O281      1.0  0.48841  0.11267  0.34418  1.0000
  O   O282      1.0  0.28727  0.30202  0.34389  1.0000
  Ti  Ti145     1.0  0.85838  0.19229  0.34648  1.0000
  Ti  Ti146     1.0  0.86096  0.45369  0.34193  1.0000
  O   O283      1.0  0.84070  0.34806  0.34603  1.0000
  O   O284      1.0  0.82100  0.03141  0.34988  1.0000
  O   O285      1.0  0.43084  0.09295  0.34590  1.0000
  O   O286      1.0  0.23205  0.28948  0.34689  1.0000
  Ti  Ti147     1.0  0.80166  0.18284  0.35067  1.0000
  Ti  Ti148     1.0  0.80343  0.43762  0.34389  1.0000
  O   O287      1.0  0.78507  0.32987  0.35135  1.0000
  O   O288      1.0  0.76530  0.02224  0.35204  1.0000
  O   O289      1.0  0.37300  0.08653  0.35375  1.0000
  O   O290      1.0  0.17794  0.27327  0.35045  1.0000
  Ti  Ti149     1.0  0.74640  0.17186  0.35585  1.0000
  Ti  Ti150     1.0  0.74726  0.41648  0.34557  1.0000
  O   O291      1.0  0.72935  0.31633  0.35436  1.0000
  O   O292      1.0  0.71022  0.00844  0.35459  1.0000
  O   O293      1.0  0.31674  0.05961  0.35684  1.0000
  O   O294      1.0  0.11964  0.25145  0.35654  1.0000
  Ti  Ti151     1.0  0.68873  0.15923  0.35962  1.0000
  Ti  Ti152     1.0  0.68826  0.41249  0.35383  1.0000
  O   O295      1.0  0.67298  0.30325  0.36013  1.0000
  O   O296      1.0  0.65201  0.49313  0.36313  1.0000
  O   O297      1.0  0.25945  0.04544  0.36195  1.0000
  O   O298      1.0  0.05990  0.23973  0.35927  1.0000
  Ti  Ti153     1.0  0.63323  0.14041  0.36511  1.0000
  Ti  Ti154     1.0  0.63211  0.39627  0.35964  1.0000
  O   O299      1.0  0.61675  0.29027  0.36271  1.0000
  O   O300      1.0  0.59439  0.47427  0.36539  1.0000
  O   O301      1.0  0.20347  0.02090  0.36533  1.0000
  O   O302      1.0  0.00301  0.23286  0.36229  1.0000
  Ti  Ti155     1.0  0.57843  0.12715  0.36236  1.0000
  Ti  Ti156     1.0  0.57701  0.36899  0.36308  1.0000
  O   O303      1.0  0.55788  0.27427  0.36717  1.0000
  O   O304      1.0  0.53959  0.46043  0.36837  1.0000
  O   O305      1.0  0.14962  0.01084  0.36987  1.0000
  O   O306      1.0  0.94556  0.22157  0.36571  1.0000
  Ti  Ti157     1.0  0.52072  0.11978  0.37162  1.0000
  Ti  Ti158     1.0  0.52032  0.35718  0.36565  1.0000
  O   O307      1.0  0.50339  0.26236  0.36973  1.0000
  O   O308      1.0  0.48069  0.45039  0.37038  1.0000
  O   O309      1.0  0.09143  0.99968  0.37466  1.0000
  O   O310      1.0  0.88864  0.21441  0.36812  1.0000
  Ti  Ti159     1.0  0.46324  0.10546  0.37493  1.0000
  Ti  Ti160     1.0  0.46111  0.35476  0.37174  1.0000
  O   O311      1.0  0.44701  0.24329  0.37376  1.0000
  O   O312      1.0  0.42274  0.43300  0.37609  1.0000
  O   O313      1.0  0.03454  0.49510  0.37646  1.0000
  O   O314      1.0  0.83141  0.20051  0.37392  1.0000
  Ti  Ti161     1.0  0.40920  0.07798  0.37669  1.0000
  Ti  Ti162     1.0  0.40482  0.32403  0.37452  1.0000
  O   O315      1.0  0.38795  0.22964  0.38078  1.0000
  O   O316      1.0  0.36671  0.41043  0.37931  1.0000
  O   O317      1.0  0.97658  0.46810  0.37854  1.0000
  O   O318      1.0  0.77686  0.16485  0.38032  1.0000
  Ti  Ti163     1.0  0.35104  0.06223  0.38437  1.0000
  Ti  Ti164     1.0  0.34823  0.30441  0.37818  1.0000
  O   O319      1.0  0.33013  0.21558  0.38684  1.0000
  O   O320      1.0  0.30920  0.40044  0.38055  1.0000
  O   O321      1.0  0.92163  0.45290  0.38478  1.0000
  O   O322      1.0  0.72051  0.16597  0.38164  1.0000
  Ti  Ti165     1.0  0.29279  0.04966  0.38833  1.0000
  Ti  Ti166     1.0  0.28965  0.30853  0.38324  1.0000
  O   O323      1.0  0.27603  0.19814  0.38763  1.0000
  O   O324      1.0  0.25074  0.38987  0.39071  1.0000
  O   O325      1.0  0.66390  0.14348  0.38505  1.0000
  Ti  Ti167     1.0  0.23573  0.04515  0.39248  1.0000
  Ti  Ti168     1.0  0.23595  0.28234  0.38745  1.0000
  O   O326      1.0  0.21707  0.18240  0.39176  1.0000
  O   O327      1.0  0.19885  0.37572  0.39367  1.0000
  O   O328      1.0  0.60582  0.13645  0.38908  1.0000
  Ti  Ti169     1.0  0.17924  0.02458  0.40030  1.0000
  Ti  Ti170     1.0  0.17743  0.27250  0.38922  1.0000
  O   O329      1.0  0.16355  0.17126  0.39772  1.0000
  O   O330      1.0  0.14022  0.35448  0.39649  1.0000
  O   O331      1.0  0.54928  0.11219  0.39279  1.0000
  Ti  Ti171     1.0  0.12467  0.00046  0.39990  1.0000
  Ti  Ti172     1.0  0.12016  0.25568  0.39791  1.0000
  O   O332      1.0  0.10284  0.15319  0.40117  1.0000
  O   O333      1.0  0.08155  0.34080  0.39897  1.0000
  O   O334      1.0  0.49310  0.09807  0.39573  1.0000
  Ti  Ti173     1.0  0.06416  0.49179  0.40281  1.0000
  Ti  Ti174     1.0  0.06306  0.23484  0.39892  1.0000
  O   O335      1.0  0.04547  0.14147  0.40498  1.0000
  O   O336      1.0  0.02567  0.32811  0.40274  1.0000
  O   O337      1.0  0.43784  0.07406  0.40044  1.0000
  Ti  Ti175     1.0  0.00767  0.47384  0.40934  1.0000
  Ti  Ti176     1.0  0.00359  0.23566  0.40132  1.0000
  O   O338      1.0  0.98831  0.12844  0.40835  1.0000
  O   O339      1.0  0.96747  0.31257  0.40626  1.0000
  O   O340      1.0  0.37993  0.06942  0.40755  1.0000
  Ti  Ti177     1.0  0.95143  0.47232  0.40591  1.0000
  Ti  Ti178     1.0  0.94895  0.20060  0.40522  1.0000
  O   O341      1.0  0.93453  0.10706  0.41118  1.0000
  O   O342      1.0  0.32392  0.05059  0.41002  1.0000
  O   O343      1.0  0.97346  0.09066  0.05323  1.0000
  O   O344      1.0  0.58153  0.15948  0.06159  1.0000
  O   O345      1.0  0.64033  0.16779  0.05489  1.0000
  O   O346      1.0  0.69936  0.18212  0.05123  1.0000
  O   O347      1.0  0.75662  0.19547  0.04983  1.0000
  O   O348      1.0  0.81126  0.21885  0.04462  1.0000
  O   O349      1.0  0.86788  0.22184  0.03928  1.0000
  O   O350      1.0  0.92468  0.24563  0.03705  1.0000
  O   O351      1.0  0.26521  0.05279  0.41392  1.0000
  O   O352      1.0  0.20914  0.02467  0.42063  1.0000
  O   O353      1.0  0.15338  0.01242  0.42494  1.0000
  O   O354      1.0  0.09583  0.48704  0.42576  1.0000
  O   O355      1.0  0.04144  0.47448  0.43155  1.0000
  O   O356      1.0  0.98215  0.46519  0.43128  1.0000
  H   H1        1.0  0.01764  0.39931  0.06628  1.0000
  H   H2        1.0  0.00006  0.33306  0.07072  1.0000
  O   O357      1.0  0.00060  0.38815  0.05941  1.0000
  H   H3        1.0  0.89283  0.27688  0.40055  1.0000
  H   H4        1.0  0.90956  0.35978  0.39723  1.0000
  O   O358      1.0  0.90665  0.30487  0.40971  1.0000
  H   H5        1.0  0.83804  0.47686  0.39896  1.0000
  H   H6        1.0  0.86155  0.52750  0.39841  1.0000
  O   O359      1.0  0.85763  0.46668  0.39187  1.0000
  H   H7        1.0  0.80071  0.69573  0.43433  1.0000
  H   H8        1.0  0.78324  0.67651  0.40899  1.0000
  O   O360      1.0  0.78267  0.68599  0.43013  1.0000
  H   H9        1.0  0.73503  0.45121  0.40433  1.0000
  H   H10       1.0  0.73823  0.54374  0.39470  1.0000
  O   O361      1.0  0.74913  0.47262  0.39600  1.0000
  H   H11       1.0  0.68047  0.04958  0.46496  1.0000
  H   H12       1.0  0.68107  0.97159  0.48545  1.0000
  O   O362      1.0  0.68789  0.97825  0.46707  1.0000
  H   H13       1.0  0.64053  0.43556  0.41918  1.0000
  H   H14       1.0  0.64566  0.32327  0.41533  1.0000
  O   O363      1.0  0.63330  0.38768  0.40783  1.0000
  H   H15       1.0  0.58239  0.30392  0.41822  1.0000
  H   H16       1.0  0.59285  0.39479  0.41469  1.0000
  O   O364      1.0  0.57858  0.36643  0.40872  1.0000
  H   H17       1.0  0.52580  0.40561  0.42263  1.0000
  H   H18       1.0  0.53927  0.28518  0.41806  1.0000
  O   O365      1.0  0.52309  0.34745  0.41403  1.0000
  H   H19       1.0  0.45498  0.35914  0.42933  1.0000
  H   H20       1.0  0.48747  0.34108  0.41958  1.0000
  O   O366      1.0  0.46962  0.33752  0.41358  1.0000
  H   H21       1.0  0.40676  0.31884  0.43701  1.0000
  H   H22       1.0  0.41860  0.20095  0.42363  1.0000
  O   O367      1.0  0.41616  0.27600  0.42042  1.0000
  H   H23       1.0  0.36174  0.32412  0.43830  1.0000
  H   H24       1.0  0.33649  0.42347  0.42409  1.0000
  O   O368      1.0  0.34336  0.34860  0.42383  1.0000
  H   H25       1.0  0.28724  0.38888  0.42940  1.0000
  H   H26       1.0  0.31711  0.31285  0.42812  1.0000
  O   O369      1.0  0.29658  0.31741  0.42977  1.0000
  H   H27       1.0  0.25665  0.19730  0.43688  1.0000
  H   H28       1.0  0.23720  0.31304  0.44711  1.0000
  O   O370      1.0  0.23821  0.25663  0.43424  1.0000
  H   H29       1.0  0.20460  0.26161  0.43820  1.0000
  H   H30       1.0  0.18213  0.20934  0.44431  1.0000
  O   O371      1.0  0.18399  0.27240  0.43756  1.0000
  H   H31       1.0  0.12326  0.20918  0.45712  1.0000
  H   H32       1.0  0.12696  0.30343  0.45276  1.0000
  O   O372      1.0  0.11845  0.26256  0.44260  1.0000
  H   H33       1.0  0.02951  0.23225  0.44792  1.0000
  H   H34       1.0  0.00059  0.28253  0.46433  1.0000
  O   O373      1.0  0.01056  0.22795  0.45006  1.0000
  H   H35       1.0  0.95907  0.18869  0.46536  1.0000
  H   H36       1.0  0.92506  0.20153  0.46255  1.0000
  O   O374      1.0  0.93992  0.22869  0.45524  1.0000
  H   H37       1.0  0.04003  0.21580  0.07155  1.0000
  H   H38       1.0  0.06855  0.25252  0.07404  1.0000
  O   O375      1.0  0.04859  0.26022  0.08171  1.0000
  H   H39       1.0  0.11894  0.25019  0.06724  1.0000
  H   H40       1.0  0.11648  0.14982  0.07883  1.0000
  O   O376      1.0  0.10629  0.22223  0.07796  1.0000
  H   H41       1.0  0.17210  0.22621  0.06087  1.0000
  H   H42       1.0  0.15057  0.34241  0.06194  1.0000
  O   O377      1.0  0.15501  0.27569  0.07006  1.0000
  H   H43       1.0  0.20568  0.38410  0.06194  1.0000
  H   H44       1.0  0.21061  0.26876  0.05458  1.0000
  O   O378      1.0  0.21677  0.31559  0.06672  1.0000
  H   H45       1.0  0.26030  0.38880  0.05712  1.0000
  H   H46       1.0  0.25802  0.27539  0.06493  1.0000
  O   O379      1.0  0.27058  0.32103  0.06620  1.0000
  H   H47       1.0  0.30676  0.31348  0.05861  1.0000
  H   H48       1.0  0.34068  0.27618  0.05218  1.0000
  O   O380      1.0  0.32317  0.32883  0.06269  1.0000
  H   H49       1.0  0.38022  0.40359  0.04015  1.0000
  H   H50       1.0  0.41014  0.34148  0.04923  1.0000
  O   O381      1.0  0.39056  0.34540  0.05439  1.0000
  H   H51       1.0  0.42396  0.47949  0.05350  1.0000
  H   H52       1.0  0.44451  0.39083  0.03339  1.0000
  O   O382      1.0  0.43175  0.40501  0.05044  1.0000
  H   H53       1.0  0.49384  0.43057  0.03849  1.0000
  H   H54       1.0  0.50308  0.31214  0.04360  1.0000
  O   O383      1.0  0.50463  0.37599  0.04970  1.0000
  H   H55       1.0  0.56728  0.30683  0.04623  1.0000
  H   H56       1.0  0.53543  0.37202  0.04494  1.0000
  O   O384      1.0  0.55334  0.38077  0.04750  1.0000
  H   H57       1.0  0.61469  0.36245  0.03471  1.0000
  H   H58       1.0  0.59915  0.48837  0.03324  1.0000
  O   O385      1.0  0.61211  0.42653  0.04390  1.0000
  H   H59       1.0  0.64453  0.43653  0.03558  1.0000
  H   H60       1.0  0.67736  0.40427  0.02684  1.0000
  O   O386      1.0  0.66332  0.44962  0.03972  1.0000
  H   H61       1.0  0.71797  0.47025  0.02156  1.0000
  H   H62       1.0  0.72172  0.35669  0.02763  1.0000
  O   O387      1.0  0.72886  0.41254  0.03347  1.0000
  H   H63       1.0  0.80033  0.34167  0.03155  1.0000
  H   H64       1.0  0.76787  0.41552  0.02703  1.0000
  O   O388      1.0  0.78706  0.41126  0.02821  1.0000
  H   H65       1.0  0.83812  0.41785  0.01131  1.0000
  H   H66       1.0  0.82687  0.01379  0.01782  1.0000
  O   O389      1.0  0.83937  0.46942  0.02435  1.0000
  H   H67       1.0  0.88627  0.58075  0.01950  1.0000
  H   H68       1.0  0.91160  0.87461  0.02154  1.0000
  O   O390      1.0  0.89242  0.50287  0.02001  1.0000
  H   H69       1.0  0.94572  0.46788  0.00636  1.0000
  H   H70       1.0  0.97385  0.49747  0.00684  1.0000
  O   O391      1.0  0.95995  0.96332  0.01768  1.0000
  H   H71       1.0  0.93599  0.36804  0.45075  1.0000
  H   H72       1.0  0.91747  0.93291  0.45493  1.0000
  O   O392      1.0  0.93115  0.44236  0.44644  1.0000
  H   H73       1.0  0.97968  0.33227  0.02067  1.0000
  H   H74       1.0  0.98421  0.22176  0.00663  1.0000
  O   O393      1.0  0.98252  0.25977  0.02400  1.0000
  Ti  Ti179     1.0  0.95704  0.73665  0.06323  1.0000
  Ti  Ti180     1.0  0.95859  0.50518  0.06349  1.0000
  O   O394      1.0  0.94295  0.88872  0.06392  1.0000
  O   O395      1.0  0.91816  0.57902  0.06157  1.0000
  O   O396      1.0  0.52696  0.63619  0.06732  1.0000
  Ti  Ti181     1.0  0.90009  0.72754  0.06368  1.0000
  Ti  Ti182     1.0  0.90335  0.97413  0.06935  1.0000
  O   O397      1.0  0.88213  0.87883  0.07080  1.0000
  O   O398      1.0  0.86237  0.55980  0.06728  1.0000
  O   O399      1.0  0.47126  0.62669  0.06891  1.0000
  Ti  Ti183     1.0  0.84071  0.71333  0.06617  1.0000
  Ti  Ti184     1.0  0.84299  0.97024  0.07043  1.0000
  O   O400      1.0  0.82488  0.86490  0.06842  1.0000
  O   O401      1.0  0.80485  0.54662  0.07007  1.0000
  O   O402      1.0  0.41427  0.60168  0.07252  1.0000
  Ti  Ti185     1.0  0.78347  0.69498  0.07205  1.0000
  Ti  Ti186     1.0  0.78774  0.94322  0.07632  1.0000
  O   O403      1.0  0.76957  0.84596  0.07393  1.0000
  O   O404      1.0  0.74515  0.53229  0.07046  1.0000
  O   O405      1.0  0.35667  0.60208  0.07840  1.0000
  Ti  Ti187     1.0  0.72464  0.68312  0.07047  1.0000
  Ti  Ti188     1.0  0.72939  0.94135  0.08058  1.0000
  O   O406      1.0  0.71105  0.83870  0.07606  1.0000
  O   O407      1.0  0.68836  0.52583  0.07965  1.0000
  O   O408      1.0  0.30078  0.58180  0.08231  1.0000
  Ti  Ti189     1.0  0.66663  0.67577  0.07790  1.0000
  Ti  Ti190     1.0  0.67200  0.91952  0.07862  1.0000
  O   O409      1.0  0.65460  0.82274  0.07853  1.0000
  O   O410      1.0  0.63323  0.51230  0.08926  1.0000
  O   O411      1.0  0.24296  0.56711  0.08728  1.0000
  Ti  Ti191     1.0  0.61093  0.66205  0.08210  1.0000
  Ti  Ti192     1.0  0.61300  0.91590  0.08847  1.0000
  O   O412      1.0  0.59611  0.81412  0.08019  1.0000
  O   O413      1.0  0.57561  0.99591  0.08328  1.0000
  O   O414      1.0  0.18481  0.55493  0.08850  1.0000
  O   O415      1.0  0.98573  0.74055  0.08595  1.0000
  Ti  Ti193     1.0  0.55575  0.63950  0.09065  1.0000
  Ti  Ti194     1.0  0.56001  0.88577  0.09146  1.0000
  O   O416      1.0  0.53888  0.79746  0.09016  1.0000
  O   O417      1.0  0.51936  0.98057  0.08659  1.0000
  O   O418      1.0  0.12885  0.54627  0.09332  1.0000
  O   O419      1.0  0.92974  0.73252  0.09012  1.0000
  Ti  Ti195     1.0  0.49921  0.63868  0.09189  1.0000
  Ti  Ti196     1.0  0.50079  0.88624  0.09343  1.0000
  O   O420      1.0  0.48475  0.78504  0.09388  1.0000
  O   O421      1.0  0.46113  0.96423  0.09145  1.0000
  O   O422      1.0  0.07325  0.53552  0.09756  1.0000
  O   O423      1.0  0.87235  0.71408  0.09521  1.0000
  Ti  Ti197     1.0  0.44536  0.61397  0.09376  1.0000
  Ti  Ti198     1.0  0.44640  0.86262  0.10235  1.0000
  O   O424      1.0  0.42822  0.75673  0.09993  1.0000
  O   O425      1.0  0.40590  0.95103  0.10512  1.0000
  O   O426      1.0  0.01627  0.51312  0.10224  1.0000
  O   O427      1.0  0.82034  0.68802  0.09889  1.0000
  Ti  Ti199     1.0  0.38776  0.59701  0.10009  1.0000
  Ti  Ti200     1.0  0.38902  0.84948  0.10604  1.0000
  O   O428      1.0  0.37227  0.74750  0.10090  1.0000
  O   O429      1.0  0.34820  0.93725  0.10621  1.0000
  O   O430      1.0  0.96010  0.99732  0.10401  1.0000
  O   O431      1.0  0.76137  0.68028  0.10256  1.0000
  Ti  Ti201     1.0  0.33283  0.58459  0.10366  1.0000
  Ti  Ti202     1.0  0.33464  0.82387  0.11091  1.0000
  O   O432      1.0  0.31507  0.72888  0.11168  1.0000
  O   O433      1.0  0.29170  0.91384  0.11114  1.0000
  O   O434      1.0  0.90262  0.98507  0.10770  1.0000
  O   O435      1.0  0.70257  0.67960  0.10367  1.0000
  Ti  Ti203     1.0  0.27276  0.57661  0.10895  1.0000
  Ti  Ti204     1.0  0.27594  0.81637  0.11564  1.0000
  O   O436      1.0  0.25867  0.71266  0.11338  1.0000
  O   O437      1.0  0.23560  0.90345  0.11405  1.0000
  O   O438      1.0  0.84573  0.96658  0.11076  1.0000
  O   O439      1.0  0.64555  0.66602  0.11043  1.0000
  Ti  Ti205     1.0  0.21615  0.55911  0.11131  1.0000
  Ti  Ti206     1.0  0.21819  0.80356  0.12006  1.0000
  O   O440      1.0  0.19978  0.70126  0.11448  1.0000
  O   O441      1.0  0.17972  0.88943  0.11863  1.0000
  O   O442      1.0  0.79138  0.94509  0.11619  1.0000
  O   O443      1.0  0.58679  0.66409  0.11285  1.0000
  Ti  Ti207     1.0  0.16205  0.52715  0.11588  1.0000
  Ti  Ti208     1.0  0.16011  0.78049  0.12283  1.0000
  O   O444      1.0  0.14281  0.69147  0.12483  1.0000
  O   O445      1.0  0.12146  0.87214  0.12170  1.0000
  O   O446      1.0  0.73094  0.93484  0.11819  1.0000
  O   O447      1.0  0.52982  0.63525  0.11977  1.0000
  Ti  Ti209     1.0  0.10568  0.53250  0.12089  1.0000
  Ti  Ti210     1.0  0.10435  0.77849  0.12913  1.0000
  O   O448      1.0  0.08658  0.66685  0.12912  1.0000
  O   O449      1.0  0.06406  0.85636  0.12163  1.0000
  O   O450      1.0  0.67513  0.92632  0.12083  1.0000
  O   O451      1.0  0.47412  0.62647  0.12293  1.0000
  Ti  Ti211     1.0  0.04909  0.50516  0.12302  1.0000
  Ti  Ti212     1.0  0.04537  0.76105  0.13094  1.0000
  O   O452      1.0  0.02944  0.65679  0.12861  1.0000
  O   O453      1.0  0.00979  0.84585  0.12824  1.0000
  O   O454      1.0  0.61849  0.90196  0.12449  1.0000
  O   O455      1.0  0.41649  0.60898  0.12581  1.0000
  Ti  Ti213     1.0  0.99443  0.49395  0.12873  1.0000
  Ti  Ti214     1.0  0.98908  0.74289  0.12396  1.0000
  O   O456      1.0  0.97220  0.64115  0.12985  1.0000
  O   O457      1.0  0.95014  0.83604  0.13219  1.0000
  O   O458      1.0  0.56088  0.89962  0.13019  1.0000
  O   O459      1.0  0.36243  0.58869  0.13115  1.0000
  Ti  Ti215     1.0  0.93888  0.98170  0.13750  1.0000
  Ti  Ti216     1.0  0.93296  0.73949  0.13173  1.0000
  O   O460      1.0  0.91532  0.63529  0.13085  1.0000
  O   O461      1.0  0.89568  0.81782  0.13406  1.0000
  O   O462      1.0  0.50285  0.88218  0.13550  1.0000
  O   O463      1.0  0.30786  0.55876  0.13566  1.0000
  Ti  Ti217     1.0  0.87925  0.97455  0.13903  1.0000
  Ti  Ti218     1.0  0.87633  0.71165  0.13319  1.0000
  O   O464      1.0  0.85801  0.62225  0.13791  1.0000
  O   O465      1.0  0.83749  0.81321  0.13897  1.0000
  O   O466      1.0  0.44600  0.86903  0.14011  1.0000
  O   O467      1.0  0.24715  0.55281  0.13989  1.0000
  Ti  Ti219     1.0  0.82082  0.95284  0.14150  1.0000
  Ti  Ti220     1.0  0.81758  0.71212  0.13682  1.0000
  O   O468      1.0  0.80328  0.60614  0.14158  1.0000
  O   O469      1.0  0.77836  0.79545  0.14289  1.0000
  O   O470      1.0  0.39047  0.84400  0.14425  1.0000
  O   O471      1.0  0.18948  0.53806  0.14270  1.0000
  Ti  Ti221     1.0  0.76285  0.94148  0.14560  1.0000
  Ti  Ti222     1.0  0.76517  0.67988  0.14128  1.0000
  O   O472      1.0  0.74390  0.58332  0.14544  1.0000
  O   O473      1.0  0.72531  0.77819  0.14746  1.0000
  O   O474      1.0  0.33515  0.82509  0.14972  1.0000
  O   O475      1.0  0.13274  0.52365  0.14872  1.0000
  Ti  Ti223     1.0  0.70713  0.92137  0.14934  1.0000
  Ti  Ti224     1.0  0.70641  0.67028  0.14389  1.0000
  O   O476      1.0  0.68722  0.57499  0.14875  1.0000
  O   O477      1.0  0.66414  0.76966  0.15228  1.0000
  O   O478      1.0  0.27495  0.82314  0.15409  1.0000
  O   O479      1.0  0.07543  0.50319  0.15260  1.0000
  Ti  Ti225     1.0  0.65121  0.90971  0.15052  1.0000
  Ti  Ti226     1.0  0.64769  0.66661  0.15041  1.0000
  O   O480      1.0  0.62989  0.55927  0.15277  1.0000
  O   O481      1.0  0.60852  0.74922  0.15722  1.0000
  O   O482      1.0  0.22237  0.79865  0.15690  1.0000
  O   O483      1.0  0.02322  0.48801  0.15599  1.0000
  Ti  Ti227     1.0  0.58918  0.89942  0.15841  1.0000
  Ti  Ti228     1.0  0.59304  0.64368  0.15424  1.0000
  O   O484      1.0  0.57194  0.54540  0.15458  1.0000
  O   O485      1.0  0.55124  0.73876  0.15654  1.0000
  O   O486      1.0  0.16568  0.77663  0.16180  1.0000
  O   O487      1.0  0.96493  0.98529  0.16087  1.0000
  Ti  Ti229     1.0  0.53248  0.88922  0.15839  1.0000
  Ti  Ti230     1.0  0.53502  0.63195  0.16219  1.0000
  O   O488      1.0  0.51598  0.53005  0.16057  1.0000
  O   O489      1.0  0.49382  0.72190  0.16366  1.0000
  O   O490      1.0  0.10737  0.77144  0.16789  1.0000
  O   O491      1.0  0.90780  0.98352  0.16150  1.0000
  Ti  Ti231     1.0  0.47714  0.87069  0.16674  1.0000
  Ti  Ti232     1.0  0.47669  0.62466  0.16249  1.0000
  O   O492      1.0  0.46027  0.51384  0.16452  1.0000
  O   O493      1.0  0.43755  0.70859  0.16997  1.0000
  O   O494      1.0  0.04913  0.76416  0.17119  1.0000
  O   O495      1.0  0.84890  0.95583  0.16733  1.0000
  Ti  Ti233     1.0  0.42213  0.84744  0.17172  1.0000
  Ti  Ti234     1.0  0.42148  0.59406  0.16572  1.0000
  O   O496      1.0  0.40533  0.49378  0.16842  1.0000
  O   O497      1.0  0.38312  0.68642  0.17207  1.0000
  O   O498      1.0  0.99127  0.75159  0.17032  1.0000
  O   O499      1.0  0.79399  0.94413  0.17113  1.0000
  Ti  Ti235     1.0  0.36478  0.83392  0.17570  1.0000
  Ti  Ti236     1.0  0.36632  0.58653  0.17217  1.0000
  O   O500      1.0  0.34665  0.98278  0.17523  1.0000
  O   O501      1.0  0.32458  0.67409  0.17675  1.0000
  O   O502      1.0  0.93694  0.72250  0.17379  1.0000
  O   O503      1.0  0.73582  0.92421  0.17142  1.0000
  Ti  Ti237     1.0  0.30601  0.82282  0.18014  1.0000
  Ti  Ti238     1.0  0.30857  0.57285  0.17439  1.0000
  O   O504      1.0  0.28887  0.96551  0.17919  1.0000
  O   O505      1.0  0.26787  0.65420  0.17938  1.0000
  O   O506      1.0  0.87928  0.71948  0.17861  1.0000
  O   O507      1.0  0.67792  0.91925  0.17469  1.0000
  Ti  Ti239     1.0  0.25128  0.79978  0.18577  1.0000
  Ti  Ti240     1.0  0.25256  0.54529  0.18118  1.0000
  O   O508      1.0  0.23194  0.95273  0.18386  1.0000
  O   O509      1.0  0.21166  0.64094  0.18369  1.0000
  O   O510      1.0  0.82240  0.70696  0.18312  1.0000
  O   O511      1.0  0.62359  0.89415  0.17958  1.0000
  Ti  Ti241     1.0  0.19370  0.78224  0.18624  1.0000
  Ti  Ti242     1.0  0.19373  0.54445  0.18261  1.0000
  O   O512      1.0  0.17785  0.93091  0.18591  1.0000
  O   O513      1.0  0.15565  0.62724  0.18659  1.0000
  O   O514      1.0  0.76652  0.67384  0.18463  1.0000
  O   O515      1.0  0.56354  0.89025  0.18447  1.0000
  Ti  Ti243     1.0  0.13534  0.77287  0.19464  1.0000
  Ti  Ti244     1.0  0.13677  0.52714  0.19202  1.0000
  O   O516      1.0  0.12086  0.91649  0.19526  1.0000
  O   O517      1.0  0.09760  0.61340  0.19243  1.0000
  O   O518      1.0  0.70813  0.66839  0.18828  1.0000
  O   O519      1.0  0.50962  0.87241  0.18938  1.0000
  Ti  Ti245     1.0  0.07698  0.75210  0.19678  1.0000
  Ti  Ti246     1.0  0.08028  0.50791  0.19206  1.0000
  O   O520      1.0  0.06471  0.91087  0.19705  1.0000
  O   O521      1.0  0.03823  0.60640  0.19672  1.0000
  O   O522      1.0  0.65326  0.65529  0.19340  1.0000
  O   O523      1.0  0.45331  0.85782  0.19330  1.0000
  Ti  Ti247     1.0  0.01964  0.74811  0.19536  1.0000
  Ti  Ti248     1.0  0.02441  0.49901  0.19668  1.0000
  O   O524      1.0  0.00580  0.89327  0.19809  1.0000
  O   O525      1.0  0.98504  0.58308  0.19754  1.0000
  O   O526      1.0  0.59534  0.64299  0.19762  1.0000
  O   O527      1.0  0.39478  0.83229  0.19924  1.0000
  Ti  Ti249     1.0  0.96504  0.73481  0.19641  1.0000
  Ti  Ti250     1.0  0.96816  0.97951  0.20300  1.0000
  O   O528      1.0  0.94862  0.87371  0.20103  1.0000
  O   O529      1.0  0.92656  0.57305  0.20178  1.0000
  O   O530      1.0  0.53924  0.62972  0.20139  1.0000
  O   O531      1.0  0.33810  0.83129  0.20318  1.0000
  Ti  Ti251     1.0  0.90674  0.70949  0.20220  1.0000
  Ti  Ti252     1.0  0.90985  0.95941  0.20667  1.0000
  O   O532      1.0  0.89187  0.87311  0.20314  1.0000
  O   O533      1.0  0.87143  0.55138  0.20153  1.0000
  O   O534      1.0  0.48171  0.61446  0.20650  1.0000
  O   O535      1.0  0.28174  0.81081  0.20764  1.0000
  Ti  Ti253     1.0  0.85305  0.69909  0.20675  1.0000
  Ti  Ti254     1.0  0.85122  0.96584  0.20752  1.0000
  O   O536      1.0  0.83356  0.85827  0.21236  1.0000
  O   O537      1.0  0.81421  0.53410  0.20652  1.0000
  O   O538      1.0  0.42548  0.59401  0.20945  1.0000
  O   O539      1.0  0.22377  0.78639  0.21158  1.0000
  Ti  Ti255     1.0  0.79799  0.67272  0.20940  1.0000
  Ti  Ti256     1.0  0.79651  0.93110  0.21101  1.0000
  O   O540      1.0  0.77724  0.83716  0.20909  1.0000
  O   O541      1.0  0.75794  0.52329  0.21475  1.0000
  O   O542      1.0  0.36988  0.57913  0.21335  1.0000
  O   O543      1.0  0.16898  0.77946  0.21521  1.0000
  Ti  Ti257     1.0  0.73881  0.67195  0.21260  1.0000
  Ti  Ti258     1.0  0.73982  0.92584  0.21506  1.0000
  O   O544      1.0  0.72209  0.81713  0.21307  1.0000
  O   O545      1.0  0.70149  0.51217  0.21570  1.0000
  O   O546      1.0  0.30984  0.57165  0.22002  1.0000
  O   O547      1.0  0.11108  0.74848  0.21924  1.0000
  Ti  Ti259     1.0  0.68244  0.65891  0.21813  1.0000
  Ti  Ti260     1.0  0.68406  0.89999  0.22182  1.0000
  O   O548      1.0  0.66427  0.81077  0.21905  1.0000
  O   O549      1.0  0.64424  0.49668  0.22175  1.0000
  O   O550      1.0  0.25272  0.55881  0.22388  1.0000
  O   O551      1.0  0.05152  0.75853  0.22501  1.0000
  Ti  Ti261     1.0  0.62562  0.64171  0.22144  1.0000
  Ti  Ti262     1.0  0.62434  0.88996  0.21831  1.0000
  O   O552      1.0  0.60802  0.79445  0.22308  1.0000
  O   O553      1.0  0.58764  0.98120  0.22591  1.0000
  O   O554      1.0  0.19720  0.54110  0.22728  1.0000
  O   O555      1.0  0.99451  0.74331  0.22578  1.0000
  Ti  Ti263     1.0  0.57001  0.62139  0.22712  1.0000
  Ti  Ti264     1.0  0.56842  0.88781  0.22653  1.0000
  O   O556      1.0  0.55121  0.78315  0.22958  1.0000
  O   O557      1.0  0.52917  0.97591  0.23017  1.0000
  O   O558      1.0  0.14045  0.52345  0.23098  1.0000
  O   O559      1.0  0.94156  0.71624  0.22787  1.0000
  Ti  Ti265     1.0  0.50986  0.61648  0.23403  1.0000
  Ti  Ti266     1.0  0.51482  0.86178  0.22947  1.0000
  O   O560      1.0  0.49176  0.77184  0.23552  1.0000
  O   O561      1.0  0.47224  0.95594  0.23293  1.0000
  O   O562      1.0  0.08273  0.50735  0.23497  1.0000
  O   O563      1.0  0.88465  0.69670  0.23202  1.0000
  Ti  Ti267     1.0  0.45340  0.60433  0.23282  1.0000
  Ti  Ti268     1.0  0.45454  0.86132  0.23665  1.0000
  O   O564      1.0  0.43777  0.75249  0.23789  1.0000
  O   O565      1.0  0.41348  0.93957  0.23696  1.0000
  O   O566      1.0  0.02796  0.98513  0.24010  1.0000
  O   O567      1.0  0.82810  0.68782  0.23443  1.0000
  Ti  Ti269     1.0  0.39731  0.58276  0.24039  1.0000
  Ti  Ti270     1.0  0.39926  0.83194  0.23971  1.0000
  O   O568      1.0  0.37968  0.73748  0.24525  1.0000
  O   O569      1.0  0.36018  0.91935  0.24304  1.0000
  O   O570      1.0  0.97002  0.97544  0.24387  1.0000
  O   O571      1.0  0.77213  0.66976  0.23897  1.0000
  Ti  Ti271     1.0  0.33865  0.57683  0.24478  1.0000
  Ti  Ti272     1.0  0.33958  0.82314  0.24529  1.0000
  O   O572      1.0  0.32465  0.72059  0.24653  1.0000
  O   O573      1.0  0.29878  0.90971  0.24833  1.0000
  O   O574      1.0  0.91470  0.96548  0.24638  1.0000
  O   O575      1.0  0.71630  0.64919  0.24202  1.0000
  Ti  Ti273     1.0  0.28361  0.55569  0.24806  1.0000
  Ti  Ti274     1.0  0.28194  0.81169  0.25283  1.0000
  O   O576      1.0  0.26687  0.71029  0.24989  1.0000
  O   O577      1.0  0.24082  0.89764  0.25133  1.0000
  O   O578      1.0  0.85844  0.95476  0.25083  1.0000
  O   O579      1.0  0.65491  0.64991  0.24674  1.0000
  Ti  Ti275     1.0  0.22713  0.54223  0.25240  1.0000
  Ti  Ti276     1.0  0.22706  0.79351  0.25280  1.0000
  O   O580      1.0  0.20985  0.69402  0.25638  1.0000
  O   O581      1.0  0.18598  0.87902  0.25777  1.0000
  O   O582      1.0  0.79728  0.93773  0.25357  1.0000
  O   O583      1.0  0.59760  0.64623  0.25238  1.0000
  Ti  Ti277     1.0  0.17172  0.52357  0.25485  1.0000
  Ti  Ti278     1.0  0.17226  0.76780  0.25592  1.0000
  O   O584      1.0  0.15249  0.67594  0.25624  1.0000
  O   O585      1.0  0.13297  0.85923  0.26176  1.0000
  O   O586      1.0  0.74017  0.92676  0.25568  1.0000
  O   O587      1.0  0.54069  0.62476  0.25463  1.0000
  Ti  Ti279     1.0  0.11404  0.51338  0.25980  1.0000
  Ti  Ti280     1.0  0.11329  0.75813  0.26344  1.0000
  O   O588      1.0  0.09549  0.66379  0.26014  1.0000
  O   O589      1.0  0.07423  0.85266  0.26347  1.0000
  O   O590      1.0  0.68569  0.91312  0.26169  1.0000
  O   O591      1.0  0.48399  0.61214  0.26125  1.0000
  Ti  Ti281     1.0  0.05939  0.49857  0.26429  1.0000
  Ti  Ti282     1.0  0.05628  0.74479  0.26836  1.0000
  O   O592      1.0  0.04142  0.64486  0.26228  1.0000
  O   O593      1.0  0.01900  0.83221  0.27026  1.0000
  O   O594      1.0  0.62748  0.89703  0.26558  1.0000
  O   O595      1.0  0.43001  0.59567  0.26596  1.0000
  Ti  Ti283     1.0  0.00363  0.98233  0.26632  1.0000
  Ti  Ti284     1.0  0.99898  0.73615  0.26580  1.0000
  O   O596      1.0  0.98536  0.63085  0.26930  1.0000
  O   O597      1.0  0.95903  0.82134  0.26921  1.0000
  O   O598      1.0  0.57215  0.88183  0.27095  1.0000
  O   O599      1.0  0.37241  0.56875  0.26806  1.0000
  Ti  Ti285     1.0  0.94555  0.96798  0.27318  1.0000
  Ti  Ti286     1.0  0.94413  0.70973  0.26702  1.0000
  O   O600      1.0  0.92597  0.61910  0.27330  1.0000
  O   O601      1.0  0.90345  0.80845  0.27284  1.0000
  O   O602      1.0  0.51281  0.87009  0.27464  1.0000
  O   O603      1.0  0.31378  0.56150  0.27251  1.0000
  Ti  Ti287     1.0  0.89009  0.95776  0.27644  1.0000
  Ti  Ti288     1.0  0.88515  0.71238  0.27625  1.0000
  O   O604      1.0  0.87175  0.60010  0.27895  1.0000
  O   O605      1.0  0.84397  0.80182  0.27702  1.0000
  O   O606      1.0  0.45580  0.85821  0.27737  1.0000
  O   O607      1.0  0.25602  0.55673  0.27728  1.0000
  Ti  Ti289     1.0  0.82986  0.94915  0.27327  1.0000
  Ti  Ti290     1.0  0.83016  0.69425  0.28014  1.0000
  O   O608      1.0  0.81178  0.59389  0.27971  1.0000
  O   O609      1.0  0.78884  0.78519  0.27563  1.0000
  O   O610      1.0  0.40023  0.83286  0.28155  1.0000
  O   O611      1.0  0.20291  0.52177  0.28017  1.0000
  Ti  Ti291     1.0  0.77256  0.91731  0.28056  1.0000
  Ti  Ti292     1.0  0.77310  0.66994  0.28082  1.0000
  O   O612      1.0  0.75552  0.57013  0.27965  1.0000
  O   O613      1.0  0.73246  0.76606  0.28163  1.0000
  O   O614      1.0  0.34155  0.83610  0.28798  1.0000
  O   O615      1.0  0.14358  0.52591  0.28346  1.0000
  Ti  Ti293     1.0  0.71711  0.90984  0.28808  1.0000
  Ti  Ti294     1.0  0.71757  0.65255  0.28184  1.0000
  O   O616      1.0  0.69734  0.56250  0.28832  1.0000
  O   O617      1.0  0.67606  0.75405  0.28555  1.0000
  O   O618      1.0  0.28413  0.80885  0.29128  1.0000
  O   O619      1.0  0.08879  0.50259  0.28882  1.0000
  Ti  Ti295     1.0  0.65990  0.88785  0.28553  1.0000
  Ti  Ti296     1.0  0.65928  0.65035  0.29286  1.0000
  O   O620      1.0  0.64210  0.54568  0.28818  1.0000
  O   O621      1.0  0.61752  0.74186  0.29371  1.0000
  O   O622      1.0  0.22929  0.79359  0.29717  1.0000
  O   O623      1.0  0.03002  0.99608  0.29246  1.0000
  Ti  Ti297     1.0  0.60230  0.89082  0.29208  1.0000
  Ti  Ti298     1.0  0.60259  0.63907  0.29200  1.0000
  O   O624      1.0  0.58376  0.54041  0.29438  1.0000
  O   O625      1.0  0.56163  0.73056  0.29799  1.0000
  O   O626      1.0  0.17282  0.76681  0.29972  1.0000
  O   O627      1.0  0.97190  0.97767  0.29828  1.0000
  Ti  Ti299     1.0  0.54459  0.87287  0.30213  1.0000
  Ti  Ti300     1.0  0.54632  0.62353  0.30091  1.0000
  O   O628      1.0  0.52661  0.52636  0.30005  1.0000
  O   O629      1.0  0.50421  0.71588  0.30135  1.0000
  O   O630      1.0  0.11583  0.76087  0.30510  1.0000
  O   O631      1.0  0.91855  0.95022  0.30026  1.0000
  Ti  Ti301     1.0  0.48856  0.85399  0.30063  1.0000
  Ti  Ti302     1.0  0.49104  0.60797  0.30264  1.0000
  O   O632      1.0  0.47157  0.51081  0.30477  1.0000
  O   O633      1.0  0.44644  0.70275  0.30657  1.0000
  O   O634      1.0  0.06009  0.74374  0.30955  1.0000
  O   O635      1.0  0.85906  0.94382  0.30340  1.0000
  Ti  Ti303     1.0  0.43184  0.83592  0.30505  1.0000
  Ti  Ti304     1.0  0.43078  0.59602  0.30676  1.0000
  O   O636      1.0  0.41047  0.98761  0.30774  1.0000
  O   O637      1.0  0.38917  0.68078  0.30884  1.0000
  O   O638      1.0  0.00474  0.72611  0.31217  1.0000
  O   O639      1.0  0.80287  0.93222  0.30517  1.0000
  Ti  Ti305     1.0  0.37541  0.82509  0.31032  1.0000
  Ti  Ti306     1.0  0.37418  0.57721  0.31365  1.0000
  O   O640      1.0  0.35420  0.97002  0.31384  1.0000
  O   O641      1.0  0.33255  0.66718  0.31093  1.0000
  O   O642      1.0  0.94662  0.71656  0.31221  1.0000
  O   O643      1.0  0.74572  0.91816  0.31073  1.0000
  Ti  Ti307     1.0  0.31803  0.80906  0.31556  1.0000
  Ti  Ti308     1.0  0.31412  0.56456  0.31657  1.0000
  O   O644      1.0  0.29806  0.95684  0.32135  1.0000
  O   O645      1.0  0.27542  0.64883  0.31435  1.0000
  O   O646      1.0  0.88685  0.70798  0.31659  1.0000
  O   O647      1.0  0.69045  0.89641  0.31622  1.0000
  Ti  Ti309     1.0  0.25779  0.79661  0.32056  1.0000
  Ti  Ti310     1.0  0.25974  0.54499  0.31939  1.0000
  O   O648      1.0  0.24357  0.93816  0.32403  1.0000
  O   O649      1.0  0.22077  0.62980  0.31940  1.0000
  O   O650      1.0  0.83170  0.69713  0.31746  1.0000
  O   O651      1.0  0.63559  0.88863  0.32043  1.0000
  Ti  Ti311     1.0  0.20237  0.77527  0.32322  1.0000
  Ti  Ti312     1.0  0.20119  0.53244  0.32493  1.0000
  O   O652      1.0  0.18638  0.91925  0.32410  1.0000
  O   O653      1.0  0.16370  0.61226  0.32452  1.0000
  O   O654      1.0  0.77429  0.68056  0.32036  1.0000
  O   O655      1.0  0.57606  0.87583  0.32557  1.0000
  Ti  Ti313     1.0  0.14635  0.76507  0.32868  1.0000
  Ti  Ti314     1.0  0.14746  0.51109  0.33130  1.0000
  O   O656      1.0  0.13000  0.90847  0.32754  1.0000
  O   O657      1.0  0.10622  0.60462  0.32962  1.0000
  O   O658      1.0  0.71503  0.68246  0.32513  1.0000
  O   O659      1.0  0.51765  0.86339  0.32749  1.0000
  Ti  Ti315     1.0  0.09013  0.74704  0.33468  1.0000
  Ti  Ti316     1.0  0.08800  0.50973  0.33350  1.0000
  O   O660      1.0  0.07204  0.90055  0.33377  1.0000
  O   O661      1.0  0.05070  0.59125  0.33612  1.0000
  O   O662      1.0  0.66167  0.65282  0.33024  1.0000
  O   O663      1.0  0.46201  0.84582  0.33140  1.0000
  Ti  Ti317     1.0  0.03106  0.73917  0.33852  1.0000
  Ti  Ti318     1.0  0.03280  0.99767  0.34171  1.0000
  O   O664      1.0  0.01704  0.88158  0.33752  1.0000
  O   O665      1.0  0.99114  0.57090  0.33882  1.0000
  O   O666      1.0  0.60767  0.62452  0.33662  1.0000
  O   O667      1.0  0.40361  0.83299  0.33588  1.0000
  Ti  Ti319     1.0  0.97194  0.72356  0.33581  1.0000
  Ti  Ti320     1.0  0.97733  0.96266  0.33872  1.0000
  O   O668      1.0  0.96026  0.86573  0.34084  1.0000
  O   O669      1.0  0.93394  0.55980  0.33733  1.0000
  O   O670      1.0  0.54594  0.62393  0.33973  1.0000
  O   O671      1.0  0.34623  0.81302  0.34277  1.0000
  Ti  Ti321     1.0  0.91466  0.70472  0.34249  1.0000
  Ti  Ti322     1.0  0.91933  0.95929  0.34392  1.0000
  O   O672      1.0  0.90033  0.86021  0.34544  1.0000
  O   O673      1.0  0.87779  0.54526  0.34719  1.0000
  O   O674      1.0  0.49012  0.61329  0.34390  1.0000
  O   O675      1.0  0.28908  0.79790  0.34550  1.0000
  Ti  Ti323     1.0  0.85873  0.69820  0.34788  1.0000
  Ti  Ti324     1.0  0.86039  0.94960  0.34201  1.0000
  O   O676      1.0  0.84236  0.85044  0.34938  1.0000
  O   O677      1.0  0.82048  0.53710  0.34108  1.0000
  O   O678      1.0  0.43081  0.60511  0.34687  1.0000
  O   O679      1.0  0.23236  0.77607  0.34977  1.0000
  Ti  Ti325     1.0  0.80084  0.68211  0.35132  1.0000
  Ti  Ti326     1.0  0.80294  0.93070  0.34268  1.0000
  O   O680      1.0  0.78802  0.83019  0.35318  1.0000
  O   O681      1.0  0.76266  0.52371  0.34428  1.0000
  O   O682      1.0  0.37414  0.58029  0.35047  1.0000
  O   O683      1.0  0.17837  0.75516  0.35254  1.0000
  Ti  Ti327     1.0  0.74607  0.66603  0.34907  1.0000
  Ti  Ti328     1.0  0.74705  0.91599  0.35608  1.0000
  O   O684      1.0  0.73114  0.82049  0.36043  1.0000
  O   O685      1.0  0.70513  0.50696  0.35274  1.0000
  O   O686      1.0  0.31914  0.56497  0.35497  1.0000
  O   O687      1.0  0.11947  0.75375  0.35910  1.0000
  Ti  Ti329     1.0  0.69055  0.66407  0.35716  1.0000
  Ti  Ti330     1.0  0.69147  0.90598  0.35361  1.0000
  O   O688      1.0  0.67499  0.80520  0.36106  1.0000
  O   O689      1.0  0.65319  0.99332  0.35971  1.0000
  O   O690      1.0  0.26291  0.55182  0.35972  1.0000
  O   O691      1.0  0.06396  0.73657  0.36412  1.0000
  Ti  Ti331     1.0  0.63246  0.64316  0.36556  1.0000
  Ti  Ti332     1.0  0.63352  0.88981  0.36047  1.0000
  O   O692      1.0  0.61774  0.78844  0.36470  1.0000
  O   O693      1.0  0.59469  0.97294  0.36885  1.0000
  O   O694      1.0  0.20444  0.54138  0.36543  1.0000
  O   O695      1.0  0.00679  0.72639  0.36855  1.0000
  Ti  Ti333     1.0  0.57736  0.63344  0.36833  1.0000
  Ti  Ti334     1.0  0.57559  0.87218  0.36456  1.0000
  O   O696      1.0  0.55895  0.77845  0.36503  1.0000
  O   O697      1.0  0.53943  0.95446  0.36938  1.0000
  O   O698      1.0  0.15048  0.50538  0.37007  1.0000
  O   O699      1.0  0.94857  0.70129  0.36695  1.0000
  Ti  Ti335     1.0  0.52081  0.60923  0.37332  1.0000
  Ti  Ti336     1.0  0.51748  0.86762  0.36926  1.0000
  O   O700      1.0  0.50137  0.76050  0.37527  1.0000
  O   O701      1.0  0.48124  0.94726  0.37233  1.0000
  O   O702      1.0  0.09427  0.48872  0.37276  1.0000
  O   O703      1.0  0.89196  0.69813  0.37087  1.0000
  Ti  Ti337     1.0  0.46460  0.60160  0.37215  1.0000
  Ti  Ti338     1.0  0.46255  0.84084  0.36923  1.0000
  O   O704      1.0  0.44498  0.74512  0.37791  1.0000
  O   O705      1.0  0.42373  0.93230  0.37508  1.0000
  O   O706      1.0  0.03511  0.98424  0.37953  1.0000
  O   O707      1.0  0.83253  0.68067  0.37167  1.0000
  Ti  Ti339     1.0  0.40893  0.58153  0.37807  1.0000
  Ti  Ti340     1.0  0.40397  0.84007  0.37476  1.0000
  O   O708      1.0  0.38766  0.73017  0.38065  1.0000
  O   O709      1.0  0.36442  0.92200  0.38024  1.0000
  O   O710      1.0  0.97839  0.96272  0.38167  1.0000
  O   O711      1.0  0.77722  0.66348  0.37529  1.0000
  Ti  Ti341     1.0  0.35026  0.55785  0.38446  1.0000
  Ti  Ti342     1.0  0.34932  0.80745  0.38011  1.0000
  O   O712      1.0  0.33041  0.71219  0.38602  1.0000
  O   O713      1.0  0.30807  0.90040  0.38871  1.0000
  O   O714      1.0  0.92571  0.94833  0.38269  1.0000
  O   O715      1.0  0.72139  0.66347  0.37692  1.0000
  Ti  Ti343     1.0  0.29322  0.55049  0.38792  1.0000
  Ti  Ti344     1.0  0.29116  0.80139  0.38554  1.0000
  O   O716      1.0  0.27419  0.69888  0.39061  1.0000
  O   O717      1.0  0.25227  0.89194  0.39227  1.0000
  O   O718      1.0  0.66434  0.64618  0.38606  1.0000
  Ti  Ti345     1.0  0.23671  0.54351  0.39105  1.0000
  Ti  Ti346     1.0  0.23498  0.79157  0.38887  1.0000
  O   O719      1.0  0.21984  0.68930  0.39474  1.0000
  O   O720      1.0  0.19545  0.87083  0.39516  1.0000
  O   O721      1.0  0.60575  0.63724  0.39128  1.0000
  Ti  Ti347     1.0  0.18139  0.51541  0.39811  1.0000
  Ti  Ti348     1.0  0.17807  0.77615  0.39295  1.0000
  O   O722      1.0  0.16190  0.66329  0.39922  1.0000
  O   O723      1.0  0.14088  0.85373  0.40447  1.0000
  O   O724      1.0  0.55248  0.61343  0.39359  1.0000
  Ti  Ti349     1.0  0.12140  0.50392  0.40174  1.0000
  Ti  Ti350     1.0  0.12137  0.74754  0.40209  1.0000
  O   O725      1.0  0.10430  0.65040  0.40334  1.0000
  O   O726      1.0  0.08249  0.83396  0.40928  1.0000
  O   O727      1.0  0.49330  0.60083  0.39530  1.0000
  Ti  Ti351     1.0  0.06415  0.00100  0.40778  1.0000
  Ti  Ti352     1.0  0.06474  0.74184  0.40531  1.0000
  O   O728      1.0  0.04823  0.64231  0.40826  1.0000
  O   O729      1.0  0.02502  0.83093  0.40747  1.0000
  O   O730      1.0  0.43659  0.58263  0.40076  1.0000
  Ti  Ti353     1.0  0.00864  0.97658  0.41256  1.0000
  Ti  Ti354     1.0  0.00648  0.73566  0.40599  1.0000
  O   O731      1.0  0.98862  0.62888  0.41210  1.0000
  O   O732      1.0  0.96857  0.81011  0.41213  1.0000
  O   O733      1.0  0.38151  0.55974  0.40498  1.0000
  Ti  Ti355     1.0  0.95141  0.96789  0.40888  1.0000
  Ti  Ti356     1.0  0.95144  0.70204  0.40876  1.0000
  O   O734      1.0  0.93402  0.60591  0.41520  1.0000
  O   O735      1.0  0.32421  0.53455  0.41154  1.0000
  O   O736      1.0  0.97456  0.59806  0.05693  1.0000
  O   O737      1.0  0.58208  0.64785  0.06198  1.0000
  O   O738      1.0  0.63984  0.66465  0.05616  1.0000
  O   O739      1.0  0.69550  0.68894  0.05068  1.0000
  O   O740      1.0  0.75443  0.69739  0.05011  1.0000
  O   O741      1.0  0.81338  0.69728  0.04310  1.0000
  O   O742      1.0  0.87002  0.70489  0.04025  1.0000
  O   O743      1.0  0.92295  0.75087  0.03493  1.0000
  O   O744      1.0  0.26611  0.53945  0.41521  1.0000
  O   O745      1.0  0.20991  0.53200  0.42052  1.0000
  O   O746      1.0  0.15543  0.49444  0.42283  1.0000
  O   O747      1.0  0.09545  0.99321  0.42665  1.0000
  O   O748      1.0  0.03800  0.98989  0.43389  1.0000
  O   O749      1.0  0.98127  0.96519  0.43607  1.0000
  H   H75       1.0  0.01419  0.90611  0.07250  1.0000
  H   H76       1.0  0.00645  0.81680  0.06593  1.0000
  O   O750      1.0  0.00451  0.88267  0.05768  1.0000
  H   H77       1.0  0.90631  0.87388  0.39665  1.0000
  H   H78       1.0  0.89300  0.79552  0.40496  1.0000
  O   O751      1.0  0.90956  0.81518  0.41026  1.0000
  H   H79       1.0  0.89415  0.86878  0.48623  1.0000
  H   H80       1.0  0.87647  0.88101  0.45551  1.0000
  O   O752      1.0  0.89558  0.86751  0.46526  1.0000
  H   H81       1.0  0.79588  0.03225  0.39024  1.0000
  H   H82       1.0  0.82014  0.93234  0.40152  1.0000
  O   O753      1.0  0.80120  0.95682  0.39503  1.0000
  H   H83       1.0  0.73946  0.98024  0.41009  1.0000
  H   H84       1.0  0.77054  0.94140  0.40016  1.0000
  O   O754      1.0  0.75207  0.92666  0.40022  1.0000
  H   H85       1.0  0.69127  0.97590  0.42094  1.0000
  H   H86       1.0  0.70529  0.86750  0.41700  1.0000
  O   O755      1.0  0.68965  0.92903  0.40676  1.0000
  H   H87       1.0  0.65769  0.91253  0.41474  1.0000
  H   H88       1.0  0.64216  0.83655  0.42052  1.0000
  O   O756      1.0  0.63926  0.90216  0.40951  1.0000
  H   H89       1.0  0.59690  0.79608  0.41633  1.0000
  H   H90       1.0  0.59004  0.91607  0.41697  1.0000
  O   O757      1.0  0.58439  0.86058  0.40997  1.0000
  H   H91       1.0  0.51339  0.91470  0.42613  1.0000
  H   H92       1.0  0.53390  0.79771  0.42583  1.0000
  O   O758      1.0  0.51965  0.85464  0.41460  1.0000
  H   H93       1.0  0.47944  0.84905  0.42624  1.0000
  H   H94       1.0  0.45144  0.93466  0.41851  1.0000
  O   O759      1.0  0.46064  0.86340  0.41837  1.0000
  H   H95       1.0  0.40952  0.90478  0.42927  1.0000
  H   H96       1.0  0.42002  0.78355  0.43241  1.0000
  O   O760      1.0  0.40692  0.84702  0.42089  1.0000
  H   H97       1.0  0.37513  0.81004  0.43345  1.0000
  H   H98       1.0  0.36036  0.73526  0.43523  1.0000
  O   O761      1.0  0.35665  0.80365  0.42808  1.0000
  H   H99       1.0  0.27153  0.80712  0.44013  1.0000
  H   H100      1.0  0.30007  0.83546  0.44115  1.0000
  O   O762      1.0  0.29087  0.78836  0.43347  1.0000
  H   H101      1.0  0.22096  0.89470  0.44117  1.0000
  H   H102      1.0  0.21883  0.78706  0.44488  1.0000
  O   O763      1.0  0.23165  0.82019  0.43664  1.0000
  H   H103      1.0  0.19861  0.65295  0.43646  1.0000
  H   H104      1.0  0.17651  0.75528  0.45302  1.0000
  O   O764      1.0  0.19205  0.72761  0.43970  1.0000
  H   H105      1.0  0.14152  0.65474  0.45614  1.0000
  H   H106      1.0  0.12311  0.78190  0.45515  1.0000
  O   O765      1.0  0.13242  0.72331  0.44332  1.0000
  H   H107      1.0  0.07856  0.64298  0.45818  1.0000
  H   H108      1.0  0.04880  0.72892  0.45642  1.0000
  O   O766      1.0  0.06999  0.71339  0.45315  1.0000
  H   H109      1.0  0.99608  0.79599  0.46213  1.0000
  H   H110      1.0  0.01382  0.67769  0.46011  1.0000
  O   O767      1.0  0.01312  0.74493  0.45272  1.0000
  H   H111      1.0  0.95345  0.74856  0.46930  1.0000
  H   H112      1.0  0.92240  0.77144  0.45632  1.0000
  O   O768      1.0  0.94255  0.72553  0.45603  1.0000
  H   H113      1.0  0.07002  0.74559  0.07658  1.0000
  H   H114      1.0  0.05467  0.66770  0.07951  1.0000
  O   O769      1.0  0.05201  0.73901  0.08326  1.0000
  H   H115      1.0  0.06347  0.00678  0.05250  1.0000
  H   H116      1.0  0.07005  0.92121  0.02713  1.0000
  O   O770      1.0  0.07482  0.93620  0.04679  1.0000
  H   H117      1.0  0.16960  0.72220  0.06582  1.0000
  H   H118      1.0  0.14764  0.83747  0.06550  1.0000
  O   O771      1.0  0.15355  0.77298  0.07670  1.0000
  H   H119      1.0  0.23821  0.80443  0.06456  1.0000
  H   H120      1.0  0.20695  0.82029  0.05661  1.0000
  O   O772      1.0  0.22218  0.78765  0.07042  1.0000
  H   H121      1.0  0.29220  0.80728  0.05489  1.0000
  H   H122      1.0  0.28839  0.71685  0.06797  1.0000
  O   O773      1.0  0.27609  0.78805  0.06352  1.0000
  H   H123      1.0  0.33072  0.84441  0.04484  1.0000
  H   H124      1.0  0.30631  0.91960  0.06445  1.0000
  O   O774      1.0  0.32088  0.84855  0.06322  1.0000
  H   H125      1.0  0.37233  0.94174  0.06001  1.0000
  H   H126      1.0  0.39889  0.86140  0.05123  1.0000
  O   O775      1.0  0.38020  0.86915  0.05962  1.0000
  H   H127      1.0  0.43546  0.91463  0.04177  1.0000
  H   H128      1.0  0.44999  0.79232  0.04452  1.0000
  O   O776      1.0  0.43632  0.85107  0.05308  1.0000
  H   H129      1.0  0.50005  0.80501  0.03611  1.0000
  H   H130      1.0  0.52365  0.86272  0.04243  1.0000
  O   O777      1.0  0.50347  0.86860  0.04481  1.0000
  H   H131      1.0  0.55150  0.93435  0.03223  1.0000
  H   H132      1.0  0.57325  0.82620  0.03365  1.0000
  O   O778      1.0  0.55601  0.86846  0.04325  1.0000
  H   H133      1.0  0.60831  0.88303  0.02629  1.0000
  H   H134      1.0  0.59818  0.99657  0.03258  1.0000
  O   O779      1.0  0.61217  0.92999  0.03801  1.0000
  H   H135      1.0  0.65679  0.42857  0.95259  1.0000
  H   H136      1.0  0.62833  0.41777  0.94981  1.0000
  O   O780      1.0  0.64073  0.42947  0.96333  1.0000
  H   H137      1.0  0.72906  0.89729  0.02292  1.0000
  H   H138      1.0  0.71209  0.01023  0.02560  1.0000
  O   O781      1.0  0.73017  0.95764  0.03203  1.0000
  H   H139      1.0  0.77180  0.94514  0.01986  1.0000
  H   H140      1.0  0.78519  0.03775  0.01617  1.0000
  O   O782      1.0  0.78306  0.98295  0.02830  1.0000
  H   H141      1.0  0.83743  0.89571  0.01491  1.0000
  H   H142      1.0  0.83124  0.53386  0.01580  1.0000
  O   O783      1.0  0.84177  0.95326  0.02704  1.0000
  H   H143      1.0  0.87943  0.94340  0.01547  1.0000
  H   H144      1.0  0.87408  0.49486  0.01428  1.0000
  O   O784      1.0  0.89829  0.94671  0.01970  1.0000
  H   H145      1.0  0.97688  0.97426  0.00833  1.0000
  H   H146      1.0  0.94322  0.99686  0.00321  1.0000
  O   O785      1.0  0.96359  0.46133  0.01731  1.0000
  H   H147      1.0  0.92287  0.03748  0.45684  1.0000
  H   H148      1.0  0.93848  0.47458  0.46094  1.0000
  O   O786      1.0  0.93320  0.96134  0.45093  1.0000
  H   H149      1.0  0.99328  0.73448  0.01344  1.0000
  H   H150      1.0  0.97010  0.84477  0.02334  1.0000
  O   O787      1.0  0.97530  0.77039  0.02386  1.0000
  H   H151      1.0  0.99856  0.15425  0.47544  1.0000
  H   H152      1.0  0.00061  0.04864  0.46612  1.0000
  O   O788      1.0  0.98750  0.10849  0.47708  1.0000
  H   H153      1.0  0.27303  0.74105  0.84530  1.0000
  H   H154      1.0  0.24449  0.82476  0.85769  1.0000
  O   O789      1.0  0.25217  0.75737  0.84777  1.0000
  H   H155      1.0  0.55487  0.53290  0.03226  1.0000
  H   H156      1.0  0.57105  0.60836  0.03426  1.0000
  O   O790      1.0  0.56846  0.55290  0.02220  1.0000
  H   H157      1.0  0.60175  0.11567  0.88842  1.0000
  H   H158      1.0  0.62797  0.09697  0.86944  1.0000
  O   O791      1.0  0.60827  0.14863  0.87335  1.0000
  H   H159      1.0  0.56241  0.09146  0.00647  1.0000
  H   H160      1.0  0.58235  0.12317  0.02866  1.0000
  O   O792      1.0  0.58182  0.09142  0.00952  1.0000
  H   H161      1.0  0.68299  0.21240  0.77489  1.0000
  H   H162      1.0  0.66848  0.25296  0.74489  1.0000
  O   O793      1.0  0.68116  0.18987  0.75560  1.0000
  H   H163      1.0  0.96779  0.84401  0.94886  1.0000
  H   H164      1.0  0.99152  0.88532  0.96344  1.0000
  O   O794      1.0  0.98877  0.84491  0.94788  1.0000
  H   H165      1.0  0.25329  0.92289  0.49011  1.0000
  H   H166      1.0  0.23479  0.93366  0.51844  1.0000
  O   O795      1.0  0.24824  0.88397  0.50491  1.0000
  H   H167      1.0  0.36496  0.60048  0.43701  1.0000
  H   H168      1.0  0.34403  0.63322  0.46222  1.0000
  O   O796      1.0  0.36130  0.64127  0.45424  1.0000
  H   H169      1.0  0.29583  0.41695  0.75798  1.0000
  H   H170      1.0  0.26528  0.49932  0.75867  1.0000
  O   O797      1.0  0.27989  0.45941  0.74548  1.0000
  H   H171      1.0  0.64961  0.73354  0.62964  1.0000
  H   H172      1.0  0.67649  0.75495  0.62415  1.0000
  O   O798      1.0  0.66911  0.71970  0.63697  1.0000
  H   H173      1.0  0.88662  0.19406  0.79787  1.0000
  H   H174      1.0  0.88233  0.28052  0.81965  1.0000
  O   O799      1.0  0.89043  0.20724  0.81795  1.0000
  H   H175      1.0  0.01802  0.18485  0.04118  1.0000
  H   H176      1.0  0.02016  0.13108  0.06998  1.0000
  O   O800      1.0  0.03273  0.13721  0.05422  1.0000
  H   H177      1.0  0.73080  0.74547  0.01768  1.0000
  H   H178      1.0  0.69945  0.82612  0.02207  1.0000
  O   O801      1.0  0.71625  0.80649  0.00850  1.0000
  H   H179      1.0  0.15786  0.08629  0.74266  1.0000
  H   H180      1.0  0.18210  0.04144  0.76224  1.0000
  O   O802      1.0  0.17147  0.01737  0.74678  1.0000
  H   H181      1.0  0.19003  0.13177  0.92829  1.0000
  H   H182      1.0  0.20867  0.03755  0.94454  1.0000
  O   O803      1.0  0.20165  0.11463  0.94588  1.0000
  H   H183      1.0  0.56726  0.56465  0.95794  1.0000
  H   H184      1.0  0.55909  0.55045  0.98696  1.0000
  O   O804      1.0  0.55247  0.54614  0.96761  1.0000
  H   H185      1.0  0.67903  0.36240  0.61889  1.0000
  H   H186      1.0  0.70641  0.29530  0.63324  1.0000
  O   O805      1.0  0.69643  0.30291  0.61560  1.0000
  H   H187      1.0  0.14566  0.40649  0.84960  1.0000
  H   H188      1.0  0.11227  0.45931  0.85444  1.0000
  O   O806      1.0  0.13144  0.45005  0.86270  1.0000
  H   H189      1.0  0.62334  0.25756  0.82753  1.0000
  H   H190      1.0  0.62436  0.25979  0.79576  1.0000
  O   O807      1.0  0.63405  0.21151  0.81118  1.0000
  H   H191      1.0  0.20985  0.60571  0.93795  1.0000
  H   H192      1.0  0.23591  0.61334  0.92265  1.0000
  O   O808      1.0  0.22820  0.61369  0.94227  1.0000
  H   H193      1.0  0.84743  0.52951  0.96735  1.0000
  H   H194      1.0  0.82974  0.64334  0.96153  1.0000
  O   O809      1.0  0.83387  0.59276  0.97642  1.0000
  H   H195      1.0  0.00186  0.93071  0.57800  1.0000
  H   H196      1.0  0.01436  0.99357  0.59608  1.0000
  O   O810      1.0  0.99877  0.00136  0.58279  1.0000
  H   H197      1.0  0.65854  0.80265  0.84761  1.0000
  H   H198      1.0  0.62974  0.86929  0.82964  1.0000
  O   O811      1.0  0.65144  0.84333  0.82982  1.0000
  H   H199      1.0  0.16085  0.77646  0.72570  1.0000
  H   H200      1.0  0.14383  0.89301  0.72911  1.0000
  O   O812      1.0  0.14581  0.82937  0.73786  1.0000
  H   H201      1.0  0.85818  0.95738  0.40797  1.0000
  H   H202      1.0  0.85191  0.04945  0.38926  1.0000
  O   O813      1.0  0.86303  0.98063  0.39140  1.0000
  H   H203      1.0  0.61987  0.26539  0.99285  1.0000
  H   H204      1.0  0.64093  0.33023  0.98878  1.0000
  O   O814      1.0  0.63448  0.28618  0.00174  1.0000
  H   H205      1.0  0.38827  0.35520  0.87849  1.0000
  H   H206      1.0  0.37714  0.46503  0.88490  1.0000
  O   O815      1.0  0.37072  0.40826  0.88422  1.0000
  H   H207      1.0  0.85398  0.34146  0.45142  1.0000
  H   H208      1.0  0.86273  0.39859  0.47789  1.0000
  O   O816      1.0  0.85199  0.40720  0.46022  1.0000
  H   H209      1.0  0.03502  0.67818  0.91520  1.0000
  H   H210      1.0  0.02410  0.77225  0.93334  1.0000
  O   O817      1.0  0.04288  0.72596  0.92654  1.0000
  H   H211      1.0  0.47729  0.65817  0.80200  1.0000
  H   H212      1.0  0.50319  0.61749  0.82254  1.0000
  O   O818      1.0  0.48713  0.67901  0.81877  1.0000
  H   H213      1.0  0.06817  0.02222  0.59190  1.0000
  H   H214      1.0  0.07785  0.11553  0.58560  1.0000
  O   O819      1.0  0.08013  0.04865  0.57731  1.0000
  H   H215      1.0  0.38699  0.96792  0.64314  1.0000
  H   H216      1.0  0.37310  0.97602  0.66969  1.0000
  O   O820      1.0  0.37895  0.02039  0.65616  1.0000
  H   H217      1.0  0.05839  0.75218  0.61977  1.0000
  H   H218      1.0  0.08935  0.71507  0.61271  1.0000
  O   O821      1.0  0.07502  0.76919  0.62245  1.0000
  H   H219      1.0  0.73408  0.90486  0.78234  1.0000
  H   H220      1.0  0.71168  0.85407  0.79746  1.0000
  O   O822      1.0  0.72942  0.87261  0.79871  1.0000
  H   H221      1.0  0.79312  0.79814  0.95440  1.0000
  H   H222      1.0  0.78787  0.75666  0.92676  1.0000
  O   O823      1.0  0.80396  0.75157  0.93940  1.0000
  H   H223      1.0  0.82939  0.14114  0.51932  1.0000
  H   H224      1.0  0.85843  0.14907  0.52557  1.0000
  O   O824      1.0  0.84785  0.10401  0.52742  1.0000
  H   H225      1.0  0.41784  0.59397  0.98832  1.0000
  H   H226      1.0  0.40616  0.51318  0.98165  1.0000
  O   O825      1.0  0.41596  0.55369  0.97212  1.0000
  H   H227      1.0  0.12097  0.08514  0.86558  1.0000
  H   H228      1.0  0.11765  0.01639  0.88780  1.0000
  O   O826      1.0  0.10631  0.06411  0.87361  1.0000
  H   H229      1.0  0.80929  0.47556  0.89698  1.0000
  H   H230      1.0  0.81710  0.55175  0.91380  1.0000
  O   O827      1.0  0.82497  0.48341  0.90620  1.0000
  H   H231      1.0  0.51557  0.34772  0.57241  1.0000
  H   H232      1.0  0.51970  0.25756  0.59335  1.0000
  O   O828      1.0  0.51611  0.27522  0.57273  1.0000
  H   H233      1.0  0.15150  0.84500  0.84082  1.0000
  H   H234      1.0  0.17719  0.87092  0.83180  1.0000
  O   O829      1.0  0.17203  0.81549  0.84151  1.0000
  H   H235      1.0  0.74211  0.61523  0.55308  1.0000
  H   H236      1.0  0.72691  0.53387  0.55467  1.0000
  O   O830      1.0  0.72645  0.59769  0.56171  1.0000
  H   H237      1.0  0.87078  0.97155  0.51774  1.0000
  H   H238      1.0  0.87860  0.86368  0.52885  1.0000
  O   O831      1.0  0.88718  0.90829  0.51960  1.0000
  H   H239      1.0  0.39030  0.64084  0.48047  1.0000
  H   H240      1.0  0.40508  0.65153  0.50547  1.0000
  O   O832      1.0  0.40212  0.68079  0.48653  1.0000
  H   H241      1.0  0.81342  0.48440  0.73359  1.0000
  H   H242      1.0  0.84156  0.49239  0.71814  1.0000
  O   O833      1.0  0.83212  0.49186  0.73695  1.0000
  H   H243      1.0  0.42170  0.69567  0.69215  1.0000
  H   H244      1.0  0.42704  0.79006  0.69603  1.0000
  O   O834      1.0  0.41418  0.75594  0.70286  1.0000
  H   H245      1.0  0.58776  0.72919  0.73669  1.0000
  H   H246      1.0  0.58991  0.75204  0.70585  1.0000
  O   O835      1.0  0.57476  0.75516  0.72040  1.0000
  H   H247      1.0  0.50052  0.85740  0.87142  1.0000
  H   H248      1.0  0.47920  0.83492  0.89187  1.0000
  O   O836      1.0  0.49971  0.81602  0.88788  1.0000
  H   H249      1.0  0.58671  0.86653  0.89522  1.0000
  H   H250      1.0  0.61498  0.77252  0.89982  1.0000
  O   O837      1.0  0.59415  0.79579  0.90045  1.0000
  H   H251      1.0  0.67920  0.15345  0.57906  1.0000
  H   H252      1.0  0.68905  0.23359  0.59300  1.0000
  O   O838      1.0  0.68655  0.20835  0.57415  1.0000
  H   H253      1.0  0.65916  0.56004  0.43265  1.0000
  H   H254      1.0  0.66289  0.45957  0.45425  1.0000
  O   O839      1.0  0.66266  0.48793  0.43308  1.0000
  H   H255      1.0  0.39721  0.02454  0.53922  1.0000
  H   H256      1.0  0.39533  0.10584  0.56090  1.0000
  O   O840      1.0  0.39580  0.09630  0.54043  1.0000
  H   H257      1.0  0.56838  0.55188  0.42934  1.0000
  H   H258      1.0  0.54846  0.53063  0.45002  1.0000
  O   O841      1.0  0.56642  0.54850  0.44924  1.0000
  H   H259      1.0  0.46057  0.51905  0.67764  1.0000
  H   H260      1.0  0.47104  0.60842  0.68016  1.0000
  O   O842      1.0  0.45453  0.59182  0.67434  1.0000
  H   H261      1.0  0.20694  0.35760  0.48725  1.0000
  H   H262      1.0  0.20688  0.25577  0.50232  1.0000
  O   O843      1.0  0.19556  0.33216  0.50027  1.0000
  H   H263      1.0  0.76479  0.49820  0.70414  1.0000
  H   H264      1.0  0.77666  0.42231  0.72710  1.0000
  O   O844      1.0  0.77323  0.49393  0.72210  1.0000
  H   H265      1.0  0.32450  0.40218  0.85140  1.0000
  H   H266      1.0  0.34291  0.44593  0.86990  1.0000
  O   O845      1.0  0.32199  0.46622  0.86220  1.0000
  H   H267      1.0  0.31471  0.63877  0.49860  1.0000
  H   H268      1.0  0.30424  0.58982  0.47459  1.0000
  O   O846      1.0  0.32222  0.59000  0.48314  1.0000
  H   H269      1.0  0.62186  0.81347  0.74324  1.0000
  H   H270      1.0  0.62972  0.73039  0.72278  1.0000
  O   O847      1.0  0.63295  0.73803  0.74277  1.0000
  H   H271      1.0  0.76070  0.85809  0.66053  1.0000
  H   H272      1.0  0.77988  0.79674  0.68725  1.0000
  O   O848      1.0  0.77928  0.84455  0.67099  1.0000
  H   H273      1.0  0.89170  0.50901  0.44056  1.0000
  H   H274      1.0  0.86109  0.50921  0.44898  1.0000
  O   O849      1.0  0.87191  0.55350  0.44470  1.0000
  H   H275      1.0  0.71224  0.91087  0.63962  1.0000
  H   H276      1.0  0.72601  0.79980  0.63289  1.0000
  O   O850      1.0  0.73007  0.84967  0.64376  1.0000
  H   H277      1.0  0.62630  0.53788  0.87939  1.0000
  H   H278      1.0  0.65485  0.46379  0.88930  1.0000
  O   O851      1.0  0.64467  0.53219  0.88776  1.0000
  H   H279      1.0  0.08042  0.40938  0.83751  1.0000
  H   H280      1.0  0.06693  0.52980  0.83375  1.0000
  O   O852      1.0  0.08670  0.46696  0.83359  1.0000
  H   H281      1.0  0.71066  0.69855  0.71859  1.0000
  H   H282      1.0  0.68261  0.68054  0.73200  1.0000
  O   O853      1.0  0.70134  0.68768  0.73620  1.0000
  H   H283      1.0  0.91938  0.24107  0.00265  1.0000
  H   H284      1.0  0.92114  0.16221  0.97936  1.0000
  O   O854      1.0  0.92045  0.23258  0.98221  1.0000
  H   H285      1.0  0.23877  0.28409  0.53639  1.0000
  H   H286      1.0  0.23915  0.38872  0.54271  1.0000
  O   O855      1.0  0.25106  0.32626  0.53534  1.0000
  H   H287      1.0  0.26186  0.81774  0.57682  1.0000
  H   H288      1.0  0.24076  0.88932  0.59952  1.0000
  O   O856      1.0  0.25152  0.88822  0.58111  1.0000
  H   H289      1.0  0.74905  0.79049  0.43405  1.0000
  H   H290      1.0  0.72624  0.86904  0.45372  1.0000
  O   O857      1.0  0.72930  0.81351  0.44016  1.0000
  H   H291      1.0  0.61370  0.69123  0.61899  1.0000
  H   H292      1.0  0.60579  0.81482  0.61432  1.0000
  O   O858      1.0  0.61305  0.75624  0.62792  1.0000
  H   H293      1.0  0.08125  0.46961  0.05845  1.0000
  H   H294      1.0  0.10645  0.47244  0.04147  1.0000
  O   O859      1.0  0.08733  0.46609  0.03844  1.0000
  H   H295      1.0  0.94984  0.09156  0.67348  1.0000
  H   H296      1.0  0.94687  0.06564  0.70253  1.0000
  O   O860      1.0  0.93614  0.11855  0.68877  1.0000
  H   H297      1.0  0.98590  0.51566  0.96430  1.0000
  H   H298      1.0  0.96402  0.61142  0.97899  1.0000
  O   O861      1.0  0.98415  0.56912  0.97909  1.0000
  H   H299      1.0  0.25523  0.41853  0.72085  1.0000
  H   H300      1.0  0.22440  0.49129  0.72981  1.0000
  O   O862      1.0  0.23447  0.43663  0.71626  1.0000
  H   H301      1.0  0.32350  0.69734  0.82575  1.0000
  H   H302      1.0  0.30056  0.79618  0.81099  1.0000
  O   O863      1.0  0.30260  0.73654  0.82100  1.0000
  H   H303      1.0  0.39769  0.34400  0.95745  1.0000
  H   H304      1.0  0.42596  0.35347  0.94441  1.0000
  O   O864      1.0  0.41473  0.36040  0.96221  1.0000
  H   H305      1.0  0.59279  0.96697  0.47164  1.0000
  H   H306      1.0  0.60315  0.87030  0.49088  1.0000
  O   O865      1.0  0.59985  0.94665  0.49107  1.0000
  H   H307      1.0  0.41757  0.73576  0.01414  1.0000
  H   H308      1.0  0.41703  0.65832  0.04052  1.0000
  O   O866      1.0  0.42125  0.66735  0.02066  1.0000
  H   H309      1.0  0.51509  0.22139  0.48518  1.0000
  H   H310      1.0  0.54112  0.25075  0.47477  1.0000
  O   O867      1.0  0.52441  0.27175  0.48639  1.0000
  H   H311      1.0  0.68608  0.05883  0.65695  1.0000
  H   H312      1.0  0.66921  0.98206  0.65087  1.0000
  O   O868      1.0  0.68006  0.01866  0.64135  1.0000
  H   H313      1.0  0.24111  0.66365  0.70557  1.0000
  H   H314      1.0  0.26553  0.58342  0.72109  1.0000
  O   O869      1.0  0.25938  0.61504  0.70129  1.0000
  H   H315      1.0  0.54869  0.13654  0.73649  1.0000
  H   H316      1.0  0.56853  0.03633  0.75288  1.0000
  O   O870      1.0  0.54814  0.07229  0.74650  1.0000
  H   H317      1.0  0.20248  0.97229  0.84204  1.0000
  H   H318      1.0  0.19256  0.98888  0.81111  1.0000
  O   O871      1.0  0.18566  0.97617  0.83007  1.0000
  H   H319      1.0  0.87998  0.12324  0.83628  1.0000
  H   H320      1.0  0.87851  0.02042  0.84805  1.0000
  O   O872      1.0  0.87051  0.09113  0.85142  1.0000
  H   H321      1.0  0.25886  0.10780  0.51585  1.0000
  H   H322      1.0  0.24856  0.15709  0.48585  1.0000
  O   O873      1.0  0.24148  0.15285  0.50501  1.0000
  H   H323      1.0  0.70439  0.84311  0.53743  1.0000
  H   H324      1.0  0.73594  0.80200  0.54965  1.0000
  O   O874      1.0  0.71843  0.86190  0.54891  1.0000
  H   H325      1.0  0.46534  0.10922  0.76869  1.0000
  H   H326      1.0  0.48508  0.00226  0.77660  1.0000
  O   O875      1.0  0.47610  0.06830  0.78464  1.0000
  H   H327      1.0  0.11471  0.94280  0.56629  1.0000
  H   H328      1.0  0.13423  0.83099  0.56367  1.0000
  O   O876      1.0  0.13484  0.90041  0.56511  1.0000
  H   H329      1.0  0.00719  0.62098  0.98468  1.0000
  H   H330      1.0  0.01381  0.71597  0.97226  1.0000
  O   O877      1.0  0.01499  0.67618  0.98957  1.0000
  H   H331      1.0  0.13843  0.74374  0.96701  1.0000
  H   H332      1.0  0.11734  0.67768  0.96108  1.0000
  O   O878      1.0  0.13673  0.67548  0.96402  1.0000
  H   H333      1.0  0.31325  0.07251  0.04800  1.0000
  H   H334      1.0  0.29595  0.08051  0.02063  1.0000
  O   O879      1.0  0.31317  0.09539  0.02899  1.0000
  H   H335      1.0  0.43418  0.09815  0.67458  1.0000
  H   H336      1.0  0.46904  0.03565  0.68284  1.0000
  O   O880      1.0  0.44813  0.06682  0.69004  1.0000
  H   H337      1.0  0.58687  0.51512  0.71278  1.0000
  H   H338      1.0  0.60310  0.59125  0.72038  1.0000
  O   O881      1.0  0.60405  0.52339  0.72447  1.0000
  H   H339      1.0  0.48590  0.39242  0.75430  1.0000
  H   H340      1.0  0.49279  0.38068  0.78545  1.0000
  O   O882      1.0  0.49598  0.41442  0.76825  1.0000
  H   H341      1.0  0.27673  0.01293  0.65720  1.0000
  H   H342      1.0  0.28196  0.00350  0.62267  1.0000
  O   O883      1.0  0.29120  0.97878  0.64135  1.0000
  H   H343      1.0  0.78702  0.57134  0.45180  1.0000
  H   H344      1.0  0.81602  0.49066  0.46003  1.0000
  O   O884      1.0  0.79588  0.51703  0.46652  1.0000
  H   H345      1.0  0.98705  0.90662  0.91173  1.0000
  H   H346      1.0  0.96780  0.01739  0.90076  1.0000
  O   O885      1.0  0.98038  0.95070  0.89517  1.0000
  H   H347      1.0  0.36169  0.68883  0.94056  1.0000
  H   H348      1.0  0.39329  0.64640  0.95517  1.0000
  O   O886      1.0  0.38023  0.69281  0.94017  1.0000
  H   H349      1.0  0.18990  0.43981  0.99006  1.0000
  H   H350      1.0  0.19735  0.32673  0.98408  1.0000
  O   O887      1.0  0.20056  0.38754  0.97699  1.0000
  H   H351      1.0  0.95224  0.24977  0.92975  1.0000
  H   H352      1.0  0.94069  0.27402  0.96060  1.0000
  O   O888      1.0  0.95404  0.28961  0.94688  1.0000
  H   H353      1.0  0.49664  0.38104  0.48495  1.0000
  H   H354      1.0  0.48608  0.47550  0.50078  1.0000
  O   O889      1.0  0.48479  0.45225  0.48161  1.0000
  H   H355      1.0  0.68447  0.55730  0.00075  1.0000
  H   H356      1.0  0.69755  0.61391  0.02207  1.0000
  O   O890      1.0  0.70262  0.56586  0.00619  1.0000
  H   H357      1.0  0.43653  0.44920  0.83973  1.0000
  H   H358      1.0  0.43261  0.34660  0.83994  1.0000
  O   O891      1.0  0.43564  0.39530  0.82815  1.0000
  H   H359      1.0  0.66317  0.99439  0.02251  1.0000
  H   H360      1.0  0.64780  0.91432  0.02905  1.0000
  O   O892      1.0  0.66597  0.92967  0.03258  1.0000
  H   H361      1.0  0.26192  0.81219  0.77303  1.0000
  H   H362      1.0  0.26203  0.85047  0.74170  1.0000
  O   O893      1.0  0.26741  0.85820  0.76155  1.0000
  H   H363      1.0  0.39156  0.00448  0.81318  1.0000
  H   H364      1.0  0.41551  0.96510  0.78876  1.0000
  O   O894      1.0  0.41015  0.00507  0.80698  1.0000
  H   H365      1.0  0.89421  0.98766  0.67897  1.0000
  H   H366      1.0  0.90866  0.05788  0.69130  1.0000
  O   O895      1.0  0.89022  0.04591  0.69060  1.0000
  H   H367      1.0  0.09347  0.26891  0.81391  1.0000
  H   H368      1.0  0.11046  0.18960  0.79118  1.0000
  O   O896      1.0  0.10246  0.26186  0.79545  1.0000
  H   H369      1.0  0.07082  0.41165  0.56251  1.0000
  H   H370      1.0  0.09242  0.35996  0.53925  1.0000
  O   O897      1.0  0.08477  0.42342  0.54939  1.0000
  H   H371      1.0  0.23903  0.44152  0.47858  1.0000
  H   H372      1.0  0.21955  0.46142  0.45152  1.0000
  O   O898      1.0  0.23114  0.40787  0.46524  1.0000
  H   H373      1.0  0.53106  0.58688  0.86284  1.0000
  H   H374      1.0  0.52349  0.67068  0.88785  1.0000
  O   O899      1.0  0.53726  0.60745  0.88123  1.0000
  H   H375      1.0  0.87737  0.21283  0.74853  1.0000
  H   H376      1.0  0.88719  0.09789  0.75993  1.0000
  O   O900      1.0  0.88529  0.16493  0.76604  1.0000
  H   H377      1.0  0.55150  0.26642  0.82787  1.0000
  H   H378      1.0  0.51495  0.33056  0.82498  1.0000
  O   O901      1.0  0.53592  0.33058  0.83057  1.0000
  H   H379      1.0  0.60755  0.29848  0.63252  1.0000
  H   H380      1.0  0.61574  0.30840  0.66305  1.0000
  O   O902      1.0  0.60496  0.35266  0.64731  1.0000
  H   H381      1.0  0.25243  0.55565  0.61239  1.0000
  H   H382      1.0  0.22695  0.52110  0.61021  1.0000
  O   O903      1.0  0.23922  0.53778  0.62287  1.0000
  H   H383      1.0  0.25434  0.08422  0.59120  1.0000
  H   H384      1.0  0.26655  0.97691  0.57756  1.0000
  O   O904      1.0  0.27175  0.03729  0.58364  1.0000
  H   H385      1.0  0.57031  0.20860  0.71399  1.0000
  H   H386      1.0  0.54476  0.29521  0.73153  1.0000
  O   O905      1.0  0.54897  0.23095  0.72030  1.0000
  H   H387      1.0  0.05097  0.90338  0.48025  1.0000
  H   H388      1.0  0.05715  0.84619  0.50914  1.0000
  O   O906      1.0  0.05145  0.91272  0.49956  1.0000
  H   H389      1.0  0.50151  0.23374  0.80442  1.0000
  H   H390      1.0  0.47106  0.32190  0.81874  1.0000
  O   O907      1.0  0.49090  0.30468  0.81193  1.0000
  H   H391      1.0  0.22962  0.20567  0.77273  1.0000
  H   H392      1.0  0.22555  0.21987  0.80395  1.0000
  O   O908      1.0  0.23467  0.16782  0.79039  1.0000
  H   H393      1.0  0.69843  0.82539  0.59057  1.0000
  H   H394      1.0  0.70810  0.71009  0.58829  1.0000
  O   O909      1.0  0.70292  0.76553  0.60249  1.0000
  H   H395      1.0  0.62485  0.19877  0.91798  1.0000
  H   H396      1.0  0.61405  0.20569  0.94825  1.0000
  O   O910      1.0  0.62600  0.15582  0.93388  1.0000
  H   H397      1.0  0.24870  0.45001  0.82113  1.0000
  H   H398      1.0  0.21794  0.53486  0.82835  1.0000
  O   O911      1.0  0.22803  0.47308  0.81768  1.0000
  H   H399      1.0  0.38120  0.61961  0.89698  1.0000
  H   H400      1.0  0.40520  0.56719  0.87650  1.0000
  O   O912      1.0  0.38480  0.58246  0.87989  1.0000
  H   H401      1.0  0.15955  0.12656  0.47869  1.0000
  H   H402      1.0  0.14807  0.06804  0.45621  1.0000
  O   O913      1.0  0.14268  0.10638  0.47387  1.0000
  H   H403      1.0  0.54746  0.20022  0.90210  1.0000
  H   H404      1.0  0.57167  0.21103  0.92080  1.0000
  O   O914      1.0  0.55823  0.18215  0.92060  1.0000
  H   H405      1.0  0.87014  0.87736  0.84326  1.0000
  H   H406      1.0  0.89885  0.84714  0.86257  1.0000
  O   O915      1.0  0.89062  0.86221  0.84310  1.0000
  H   H407      1.0  0.61972  0.71867  0.00742  1.0000
  H   H408      1.0  0.59400  0.78917  0.99101  1.0000
  O   O916      1.0  0.60291  0.77655  0.00949  1.0000
  H   H409      1.0  0.28685  0.46816  0.81981  1.0000
  H   H410      1.0  0.28057  0.41622  0.84654  1.0000
  O   O917      1.0  0.28141  0.41196  0.82672  1.0000
  H   H411      1.0  0.25343  0.19644  0.94313  1.0000
  H   H412      1.0  0.23331  0.14044  0.95116  1.0000
  O   O918      1.0  0.25181  0.14694  0.95602  1.0000
  H   H413      1.0  0.38655  0.32330  0.60968  1.0000
  H   H414      1.0  0.41514  0.34415  0.60253  1.0000
  O   O919      1.0  0.39453  0.37022  0.59906  1.0000
  H   H415      1.0  0.33191  0.04142  0.74907  1.0000
  H   H416      1.0  0.31472  0.08059  0.77545  1.0000
  O   O920      1.0  0.31400  0.10148  0.75600  1.0000
  H   H417      1.0  0.67076  0.88061  0.73325  1.0000
  H   H418      1.0  0.65935  0.93626  0.70382  1.0000
  O   O921      1.0  0.66709  0.94658  0.72249  1.0000
  H   H419      1.0  0.47983  0.11041  0.61959  1.0000
  H   H420      1.0  0.49915  0.02205  0.59861  1.0000
  O   O922      1.0  0.49970  0.06090  0.61622  1.0000
  H   H421      1.0  0.67533  0.68589  0.88888  1.0000
  H   H422      1.0  0.69939  0.61014  0.87208  1.0000
  O   O923      1.0  0.69381  0.67440  0.88020  1.0000
  H   H423      1.0  0.85153  0.65434  0.81125  1.0000
  H   H424      1.0  0.87985  0.61198  0.83007  1.0000
  O   O924      1.0  0.86078  0.66966  0.82762  1.0000
  H   H425      1.0  0.72453  0.60565  0.76200  1.0000
  H   H426      1.0  0.75607  0.55084  0.75435  1.0000
  O   O925      1.0  0.74432  0.58186  0.77085  1.0000
  H   H427      1.0  0.16111  0.27607  0.72242  1.0000
  H   H428      1.0  0.14910  0.29648  0.75069  1.0000
  O   O926      1.0  0.14752  0.25904  0.73462  1.0000
  H   H429      1.0  0.07776  0.57859  0.01887  1.0000
  H   H430      1.0  0.05010  0.67571  0.01460  1.0000
  O   O927      1.0  0.07106  0.65067  0.01808  1.0000
  H   H431      1.0  0.23237  0.86361  0.70732  1.0000
  H   H432      1.0  0.25461  0.91398  0.69457  1.0000
  O   O928      1.0  0.25234  0.84965  0.69994  1.0000
  H   H433      1.0  0.94133  0.15980  0.55477  1.0000
  H   H434      1.0  0.91984  0.25366  0.56767  1.0000
  O   O929      1.0  0.92391  0.18064  0.56580  1.0000
  H   H435      1.0  0.69286  0.46010  0.54574  1.0000
  H   H436      1.0  0.71806  0.38267  0.52868  1.0000
  O   O930      1.0  0.71262  0.44805  0.53870  1.0000
  H   H437      1.0  0.42611  0.33596  0.88790  1.0000
  H   H438      1.0  0.43035  0.22049  0.87910  1.0000
  O   O931      1.0  0.42091  0.29150  0.87375  1.0000
  H   H439      1.0  0.28962  0.97853  0.47410  1.0000
  H   H440      1.0  0.27080  0.98606  0.44854  1.0000
  O   O932      1.0  0.27626  0.95088  0.46674  1.0000
  H   H441      1.0  0.15346  0.56265  0.66013  1.0000
  H   H442      1.0  0.17551  0.47061  0.64556  1.0000
  O   O933      1.0  0.16641  0.54188  0.64422  1.0000
  H   H443      1.0  0.60218  0.41800  0.75284  1.0000
  H   H444      1.0  0.58466  0.36005  0.76404  1.0000
  O   O934      1.0  0.60240  0.36794  0.76782  1.0000
  H   H445      1.0  0.72517  0.55115  0.97233  1.0000
  H   H446      1.0  0.75471  0.55738  0.97159  1.0000
  O   O935      1.0  0.74029  0.54699  0.95905  1.0000
  H   H447      1.0  0.43128  0.89899  0.90927  1.0000
  H   H448      1.0  0.44064  0.78553  0.91579  1.0000
  O   O936      1.0  0.44711  0.83233  0.90510  1.0000
  H   H449      1.0  0.67126  0.38332  0.71835  1.0000
  H   H450      1.0  0.63876  0.42658  0.72537  1.0000
  O   O937      1.0  0.65487  0.36437  0.72288  1.0000
  H   H451      1.0  0.04131  0.29156  0.01110  1.0000
  H   H452      1.0  0.06758  0.22863  0.99164  1.0000
  O   O938      1.0  0.04806  0.28144  0.99290  1.0000
  H   H453      1.0  0.47836  0.55395  0.76958  1.0000
  H   H454      1.0  0.44794  0.64900  0.76541  1.0000
  O   O939      1.0  0.46630  0.62305  0.77541  1.0000
  H   H455      1.0  0.21555  0.94134  0.88406  1.0000
  H   H456      1.0  0.23420  0.99898  0.86820  1.0000
  O   O940      1.0  0.22547  0.94989  0.86688  1.0000
  H   H457      1.0  0.21499  0.64465  0.64213  1.0000
  H   H458      1.0  0.18575  0.63283  0.65220  1.0000
  O   O941      1.0  0.19726  0.67702  0.65399  1.0000
  H   H459      1.0  0.92953  0.84155  0.93191  1.0000
  H   H460      1.0  0.93658  0.79191  0.96288  1.0000
  O   O942      1.0  0.93722  0.85505  0.95145  1.0000
  H   H461      1.0  0.61552  0.22695  0.53962  1.0000
  H   H462      1.0  0.58367  0.26677  0.54379  1.0000
  O   O943      1.0  0.60120  0.27047  0.55225  1.0000
  H   H463      1.0  0.33427  0.20752  0.84879  1.0000
  H   H464      1.0  0.33376  0.19153  0.88222  1.0000
  O   O944      1.0  0.32837  0.16702  0.86369  1.0000
  H   H465      1.0  0.65680  0.83113  0.66012  1.0000
  H   H466      1.0  0.63476  0.93242  0.66821  1.0000
  O   O945      1.0  0.65527  0.89789  0.66864  1.0000
  H   H467      1.0  0.76036  0.76218  0.79387  1.0000
  H   H468      1.0  0.76166  0.65815  0.78605  1.0000
  O   O946      1.0  0.77237  0.69409  0.79459  1.0000
  H   H469      1.0  0.83599  0.14149  0.00119  1.0000
  H   H470      1.0  0.86272  0.15115  0.01297  1.0000
  O   O947      1.0  0.85480  0.13245  0.99556  1.0000
  H   H471      1.0  0.12464  0.28555  0.50988  1.0000
  H   H472      1.0  0.10480  0.21642  0.52042  1.0000
  O   O948      1.0  0.11624  0.25672  0.52565  1.0000
  H   H473      1.0  0.87203  0.13179  0.91853  1.0000
  H   H474      1.0  0.86475  0.10249  0.94929  1.0000
  O   O949      1.0  0.85927  0.10491  0.92982  1.0000
  H   H475      1.0  0.32051  0.22060  0.76891  1.0000
  H   H476      1.0  0.33962  0.28409  0.76261  1.0000
  O   O950      1.0  0.32054  0.28925  0.77337  1.0000
  H   H477      1.0  0.08556  0.54638  0.49178  1.0000
  H   H478      1.0  0.09094  0.50641  0.45806  1.0000
  O   O951      1.0  0.09886  0.52112  0.47598  1.0000
  H   H479      1.0  0.12783  0.98490  0.06981  1.0000
  H   H480      1.0  0.10783  0.95043  0.04571  1.0000
  O   O952      1.0  0.12737  0.94855  0.05054  1.0000
  H   H481      1.0  0.65853  0.67315  0.41397  1.0000
  H   H482      1.0  0.67032  0.68950  0.44489  1.0000
  O   O953      1.0  0.65205  0.69124  0.43479  1.0000
  H   H483      1.0  0.34266  0.49032  0.49972  1.0000
  H   H484      1.0  0.36794  0.40455  0.51874  1.0000
  O   O954      1.0  0.35103  0.41681  0.50665  1.0000
  H   H485      1.0  0.49177  0.85192  0.74394  1.0000
  H   H486      1.0  0.52018  0.87586  0.74183  1.0000
  O   O955      1.0  0.50419  0.88190  0.75451  1.0000
  H   H487      1.0  0.25124  0.71219  0.66600  1.0000
  H   H488      1.0  0.27427  0.71140  0.64528  1.0000
  O   O956      1.0  0.25465  0.71443  0.64554  1.0000
  H   H489      1.0  0.02187  0.02810  0.86540  1.0000
  H   H490      1.0  0.01059  0.95350  0.87693  1.0000
  O   O957      1.0  0.02833  0.95773  0.87050  1.0000
  H   H491      1.0  0.88819  0.18529  0.48511  1.0000
  H   H492      1.0  0.88157  0.17273  0.45356  1.0000
  O   O958      1.0  0.89782  0.15564  0.46661  1.0000
  H   H493      1.0  0.43227  0.06030  0.52536  1.0000
  H   H494      1.0  0.45585  0.03657  0.50417  1.0000
  O   O959      1.0  0.45215  0.05598  0.52415  1.0000
  H   H495      1.0  0.40106  0.48556  0.73443  1.0000
  H   H496      1.0  0.41149  0.47310  0.76568  1.0000
  O   O960      1.0  0.41667  0.48649  0.74672  1.0000
  H   H497      1.0  0.47932  0.64572  0.94926  1.0000
  H   H498      1.0  0.44945  0.63161  0.93891  1.0000
  O   O961      1.0  0.46541  0.65178  0.93277  1.0000
  H   H499      1.0  0.11062  0.81798  0.82020  1.0000
  H   H500      1.0  0.10361  0.75868  0.79646  1.0000
  O   O962      1.0  0.10589  0.75506  0.81715  1.0000
  H   H501      1.0  0.94769  0.85761  0.77462  1.0000
  H   H502      1.0  0.92378  0.90652  0.75461  1.0000
  O   O963      1.0  0.94612  0.86897  0.75421  1.0000
  H   H503      1.0  0.84800  0.02971  0.91266  1.0000
  H   H504      1.0  0.81867  0.02188  0.90019  1.0000
  O   O964      1.0  0.83933  0.99740  0.89762  1.0000
  H   H505      1.0  0.16008  0.15220  0.88139  1.0000
  H   H506      1.0  0.15731  0.22314  0.90553  1.0000
  O   O965      1.0  0.16480  0.15038  0.90157  1.0000
  H   H507      1.0  0.35157  0.28996  0.63768  1.0000
  H   H508      1.0  0.34675  0.28220  0.60371  1.0000
  O   O966      1.0  0.36215  0.26759  0.61922  1.0000
  H   H509      1.0  0.86521  0.43808  0.89077  1.0000
  H   H510      1.0  0.89843  0.41021  0.88479  1.0000
  O   O967      1.0  0.88245  0.38797  0.88200  1.0000
  H   H511      1.0  0.20747  0.22667  0.70449  1.0000
  H   H512      1.0  0.19265  0.18984  0.68190  1.0000
  O   O968      1.0  0.19257  0.25015  0.69120  1.0000
  H   H513      1.0  0.57792  0.50724  0.56211  1.0000
  H   H514      1.0  0.60235  0.43033  0.57882  1.0000
  O   O969      1.0  0.58610  0.49632  0.58154  1.0000
  H   H515      1.0  0.72722  0.53333  0.61602  1.0000
  H   H516      1.0  0.69869  0.60359  0.62959  1.0000
  O   O970      1.0  0.71692  0.55100  0.63309  1.0000
  H   H517      1.0  0.78012  0.51868  0.59939  1.0000
  H   H518      1.0  0.76575  0.55598  0.62878  1.0000
  O   O971      1.0  0.77680  0.57202  0.61312  1.0000
  H   H519      1.0  0.78900  0.33687  0.62979  1.0000
  H   H520      1.0  0.79183  0.30027  0.66014  1.0000
  O   O972      1.0  0.78407  0.36422  0.64936  1.0000
  H   H521      1.0  0.33135  0.30103  0.80749  1.0000
  H   H522      1.0  0.36387  0.26643  0.81673  1.0000
  O   O973      1.0  0.34372  0.28568  0.82427  1.0000
  H   H523      1.0  0.59731  0.40684  0.83915  1.0000
  H   H524      1.0  0.62476  0.40432  0.84714  1.0000
  O   O974      1.0  0.61198  0.37068  0.85272  1.0000
  H   H525      1.0  0.08073  0.89200  0.93413  1.0000
  H   H526      1.0  0.09890  0.92479  0.95498  1.0000
  O   O975      1.0  0.07905  0.93764  0.94952  1.0000
  H   H527      1.0  0.18084  0.46211  0.92736  1.0000
  H   H528      1.0  0.19340  0.38125  0.94746  1.0000
  O   O976      1.0  0.18662  0.38993  0.92629  1.0000
  H   H529      1.0  0.65146  0.50699  0.75291  1.0000
  H   H530      1.0  0.63909  0.61375  0.76415  1.0000
  O   O977      1.0  0.64013  0.54374  0.76812  1.0000
  H   H531      1.0  0.41304  0.88626  0.99940  1.0000
  H   H532      1.0  0.40483  0.83342  0.97181  1.0000
  O   O978      1.0  0.40501  0.83482  0.99254  1.0000
  H   H533      1.0  0.46189  0.26190  0.51561  1.0000
  H   H534      1.0  0.45559  0.16516  0.52720  1.0000
  O   O979      1.0  0.45119  0.23989  0.52935  1.0000
  H   H535      1.0  0.44962  0.68375  0.52895  1.0000
  H   H536      1.0  0.42914  0.80228  0.53275  1.0000
  O   O980      1.0  0.44790  0.75274  0.52690  1.0000
  H   H537      1.0  0.52326  0.21493  0.63757  1.0000
  H   H538      1.0  0.52035  0.12842  0.61823  1.0000
  O   O981      1.0  0.53136  0.17207  0.62199  1.0000
  H   H539      1.0  0.57693  0.07526  0.61740  1.0000
  H   H540      1.0  0.59807  0.02972  0.64274  1.0000
  O   O982      1.0  0.59657  0.05002  0.62243  1.0000
  H   H541      1.0  0.66884  0.14089  0.01506  1.0000
  H   H542      1.0  0.68124  0.08316  0.98469  1.0000
  O   O983      1.0  0.67909  0.07496  0.00542  1.0000
  H   H543      1.0  0.71538  0.18875  0.82488  1.0000
  H   H544      1.0  0.72550  0.09000  0.83991  1.0000
  O   O984      1.0  0.73244  0.14411  0.83326  1.0000
  H   H545      1.0  0.28783  0.73433  0.69679  1.0000
  H   H546      1.0  0.31144  0.65004  0.68242  1.0000
  O   O985      1.0  0.30780  0.70703  0.69484  1.0000
  H   H547      1.0  0.45200  0.60830  0.60610  1.0000
  H   H548      1.0  0.45268  0.61786  0.63803  1.0000
  O   O986      1.0  0.45156  0.65954  0.62100  1.0000
  H   H549      1.0  0.28318  0.32036  0.67190  1.0000
  H   H550      1.0  0.30792  0.20906  0.66553  1.0000
  O   O987      1.0  0.30188  0.26659  0.67865  1.0000
  H   H551      1.0  0.76172  0.40810  0.95511  1.0000
  H   H552      1.0  0.79050  0.34068  0.94165  1.0000
  O   O988      1.0  0.77879  0.34797  0.95791  1.0000
  H   H553      1.0  0.21832  0.29271  0.85617  1.0000
  H   H554      1.0  0.21292  0.37228  0.83131  1.0000
  O   O989      1.0  0.21115  0.30548  0.83637  1.0000
  H   H555      1.0  0.65195  0.30179  0.56419  1.0000
  H   H556      1.0  0.62142  0.34511  0.55114  1.0000
  O   O990      1.0  0.63456  0.36740  0.56349  1.0000
  H   H557      1.0  0.77423  0.67286  0.56479  1.0000
  H   H558      1.0  0.77756  0.65693  0.53293  1.0000
  O   O991      1.0  0.76347  0.68510  0.54749  1.0000
  H   H559      1.0  0.72490  0.52611  0.67223  1.0000
  H   H560      1.0  0.75026  0.42746  0.66987  1.0000
  O   O992      1.0  0.73844  0.46943  0.68382  1.0000
  H   H561      1.0  0.69677  0.99490  0.84863  1.0000
  H   H562      1.0  0.72287  0.94203  0.82602  1.0000
  O   O993      1.0  0.71692  0.98796  0.84279  1.0000
  H   H563      1.0  0.32470  0.65384  0.00150  1.0000
  H   H564      1.0  0.31000  0.57305  0.00024  1.0000
  O   O994      1.0  0.31282  0.62813  0.98865  1.0000
  H   H565      1.0  0.67161  0.83600  0.80036  1.0000
  H   H566      1.0  0.68582  0.76478  0.77640  1.0000
  O   O995      1.0  0.68485  0.82587  0.78401  1.0000
  H   H567      1.0  0.21838  0.29437  0.90839  1.0000
  H   H568      1.0  0.24427  0.30877  0.90127  1.0000
  O   O996      1.0  0.23472  0.26301  0.89629  1.0000
  H   H569      1.0  0.48437  0.97042  0.95371  1.0000
  H   H570      1.0  0.47279  0.04015  0.97882  1.0000
  O   O997      1.0  0.46685  0.01252  0.96198  1.0000
  H   H571      1.0  0.55987  0.67123  0.45110  1.0000
  H   H572      1.0  0.54638  0.74615  0.47501  1.0000
  O   O998      1.0  0.55346  0.74121  0.45570  1.0000
  H   H573      1.0  0.29865  0.10622  0.52779  1.0000
  H   H574      1.0  0.28269  0.07999  0.55433  1.0000
  O   O999      1.0  0.28637  0.06435  0.53365  1.0000
  H   H575      1.0  0.91233  0.73275  0.97419  1.0000
  H   H576      1.0  0.93199  0.73588  0.00232  1.0000
  O   O1000     1.0  0.93183  0.72102  0.98137  1.0000
  H   H577      1.0  0.84796  0.26728  0.98413  1.0000
  H   H578      1.0  0.81796  0.35225  0.97993  1.0000
  O   O1001     1.0  0.83826  0.34101  0.97871  1.0000
  H   H579      1.0  0.79382  0.40806  0.49695  1.0000
  H   H580      1.0  0.78924  0.41613  0.53092  1.0000
  O   O1002     1.0  0.78213  0.40079  0.51105  1.0000
  H   H581      1.0  0.05927  0.44985  0.60894  1.0000
  H   H582      1.0  0.06067  0.34288  0.60230  1.0000
  O   O1003     1.0  0.05462  0.41145  0.59367  1.0000
  H   H583      1.0  0.10934  0.05756  0.76479  1.0000
  H   H584      1.0  0.14045  0.01473  0.77405  1.0000
  O   O1004     1.0  0.12038  0.04656  0.78294  1.0000
  H   H585      1.0  0.34841  0.14296  0.49391  1.0000
  H   H586      1.0  0.37539  0.15377  0.50966  1.0000
  O   O1005     1.0  0.36656  0.15128  0.49119  1.0000
  H   H587      1.0  0.31536  0.05236  0.64702  1.0000
  H   H588      1.0  0.34543  0.07255  0.64792  1.0000
  O   O1006     1.0  0.32601  0.09968  0.63900  1.0000
  H   H589      1.0  0.61373  0.20346  0.70359  1.0000
  H   H590      1.0  0.61579  0.13104  0.72410  1.0000
  O   O1007     1.0  0.60314  0.16047  0.70869  1.0000
  H   H591      1.0  0.35933  0.04177  0.84553  1.0000
  H   H592      1.0  0.34934  0.00603  0.81839  1.0000
  O   O1008     1.0  0.36659  0.99551  0.82987  1.0000
  H   H593      1.0  0.10608  0.77929  0.89648  1.0000
  H   H594      1.0  0.13229  0.70969  0.88128  1.0000
  O   O1009     1.0  0.12759  0.75661  0.89607  1.0000
  H   H595      1.0  0.47887  0.00193  0.45635  1.0000
  H   H596      1.0  0.48954  0.05203  0.42926  1.0000
  O   O1010     1.0  0.49584  0.00951  0.44585  1.0000
  H   H597      1.0  0.21682  0.01466  0.65000  1.0000
  H   H598      1.0  0.21420  0.11891  0.64129  1.0000
  O   O1011     1.0  0.20941  0.08345  0.65779  1.0000
  H   H599      1.0  0.23569  0.38424  0.97016  1.0000
  H   H600      1.0  0.24760  0.46875  0.96674  1.0000
  O   O1012     1.0  0.25351  0.39627  0.96704  1.0000
  H   H601      1.0  0.42760  0.67245  0.46366  1.0000
  H   H602      1.0  0.44095  0.64209  0.43199  1.0000
  O   O1013     1.0  0.43674  0.69026  0.44768  1.0000
  H   H603      1.0  0.22519  0.94430  0.55598  1.0000
  H   H604      1.0  0.20303  0.05898  0.55058  1.0000
  O   O1014     1.0  0.21171  0.99173  0.54290  1.0000
  H   H605      1.0  0.95449  0.62994  0.82136  1.0000
  H   H606      1.0  0.98580  0.62617  0.81600  1.0000
  O   O1015     1.0  0.97376  0.60050  0.82851  1.0000
  H   H607      1.0  0.13048  0.67672  0.57584  1.0000
  H   H608      1.0  0.13810  0.69226  0.54569  1.0000
  O   O1016     1.0  0.12570  0.72838  0.56027  1.0000
  H   H609      1.0  0.58983  0.69718  0.82789  1.0000
  H   H610      1.0  0.56160  0.75751  0.81152  1.0000
  O   O1017     1.0  0.58286  0.74424  0.81156  1.0000
  H   H611      1.0  0.38384  0.13469  0.67091  1.0000
  H   H612      1.0  0.37381  0.23470  0.68379  1.0000
  O   O1018     1.0  0.39131  0.17352  0.68306  1.0000
  H   H613      1.0  0.06214  0.92153  0.97760  1.0000
  H   H614      1.0  0.06885  0.81272  0.99430  1.0000
  O   O1019     1.0  0.05975  0.88850  0.99545  1.0000
  H   H615      1.0  0.17053  0.63051  0.90742  1.0000
  H   H616      1.0  0.16071  0.61599  0.93697  1.0000
  O   O1020     1.0  0.17698  0.58454  0.92501  1.0000
  H   H617      1.0  0.34682  0.84699  0.55857  1.0000
  H   H618      1.0  0.35746  0.89887  0.58121  1.0000
  O   O1021     1.0  0.36444  0.83574  0.57015  1.0000
  H   H619      1.0  0.52872  0.72324  0.52307  1.0000
  H   H620      1.0  0.51042  0.71522  0.49802  1.0000
  O   O1022     1.0  0.53013  0.69137  0.50494  1.0000
  H   H621      1.0  0.19563  0.69250  0.68970  1.0000
  H   H622      1.0  0.19771  0.77319  0.71041  1.0000
  O   O1023     1.0  0.19382  0.70771  0.70920  1.0000
  H   H623      1.0  0.78413  0.95858  0.68981  1.0000
  H   H624      1.0  0.77692  0.02904  0.71483  1.0000
  O   O1024     1.0  0.79064  0.00756  0.69955  1.0000
  H   H625      1.0  0.57191  0.07116  0.42238  1.0000
  H   H626      1.0  0.60440  0.01908  0.42295  1.0000
  O   O1025     1.0  0.58773  0.03430  0.43538  1.0000
  H   H627      1.0  0.45385  0.74553  0.87004  1.0000
  H   H628      1.0  0.45446  0.71672  0.83849  1.0000
  O   O1026     1.0  0.44182  0.74171  0.85422  1.0000
  H   H629      1.0  0.28693  0.79815  0.92148  1.0000
  H   H630      1.0  0.28332  0.90365  0.91056  1.0000
  O   O1027     1.0  0.27515  0.85022  0.91026  1.0000
  H   H631      1.0  0.38391  0.84124  0.69427  1.0000
  H   H632      1.0  0.35318  0.88203  0.68114  1.0000
  O   O1028     1.0  0.36753  0.90451  0.68918  1.0000
  H   H633      1.0  0.70025  0.20808  0.95627  1.0000
  H   H634      1.0  0.73088  0.20358  0.95356  1.0000
  O   O1029     1.0  0.71186  0.25104  0.95620  1.0000
  H   H635      1.0  0.94664  0.38202  0.51360  1.0000
  H   H636      1.0  0.92849  0.49367  0.52110  1.0000
  O   O1030     1.0  0.93035  0.42345  0.52528  1.0000
  H   H637      1.0  0.19028  0.70382  0.01346  1.0000
  H   H638      1.0  0.20983  0.60943  0.03276  1.0000
  O   O1031     1.0  0.19014  0.66145  0.03034  1.0000
  H   H639      1.0  0.93833  0.44134  0.94841  1.0000
  H   H640      1.0  0.91510  0.51259  0.96313  1.0000
  O   O1032     1.0  0.93387  0.50754  0.95634  1.0000
  H   H641      1.0  0.46401  0.96287  0.59212  1.0000
  H   H642      1.0  0.44456  0.91531  0.60527  1.0000
  O   O1033     1.0  0.45023  0.97201  0.60741  1.0000
  H   H643      1.0  0.76956  0.14653  0.93551  1.0000
  H   H644      1.0  0.76931  0.24645  0.95115  1.0000
  O   O1034     1.0  0.76754  0.17644  0.95418  1.0000
  H   H645      1.0  0.87459  0.28894  0.52205  1.0000
  H   H646      1.0  0.89458  0.18371  0.53473  1.0000
  O   O1035     1.0  0.87911  0.21591  0.52120  1.0000
  H   H647      1.0  0.76578  0.70186  0.88883  1.0000
  H   H648      1.0  0.74568  0.72862  0.91618  1.0000
  O   O1036     1.0  0.76293  0.73944  0.90740  1.0000
  H   H649      1.0  0.64799  0.51292  0.80760  1.0000
  H   H650      1.0  0.67184  0.46455  0.83288  1.0000
  O   O1037     1.0  0.65521  0.46194  0.82243  1.0000
  H   H651      1.0  0.10938  0.96893  0.84313  1.0000
  H   H652      1.0  0.11491  0.97980  0.81063  1.0000
  O   O1038     1.0  0.11489  0.93132  0.82544  1.0000
  H   H653      1.0  0.06378  0.05697  0.94279  1.0000
  H   H654      1.0  0.05696  0.17459  0.93503  1.0000
  O   O1039     1.0  0.04989  0.12005  0.93447  1.0000
  H   H655      1.0  0.40196  0.11232  0.93717  1.0000
  H   H656      1.0  0.43350  0.03611  0.94653  1.0000
  O   O1040     1.0  0.41658  0.04514  0.93447  1.0000
  H   H657      1.0  0.16913  0.19071  0.58046  1.0000
  H   H658      1.0  0.18745  0.25247  0.56820  1.0000
  O   O1041     1.0  0.18848  0.18394  0.57391  1.0000
  H   H659      1.0  0.20462  0.87848  0.92247  1.0000
  H   H660      1.0  0.20755  0.79696  0.89848  1.0000
  O   O1042     1.0  0.19764  0.86967  0.90441  1.0000
  H   H661      1.0  0.74488  0.26220  0.66748  1.0000
  H   H662      1.0  0.71626  0.33723  0.67872  1.0000
  O   O1043     1.0  0.72339  0.27920  0.66513  1.0000
  H   H663      1.0  0.89270  0.37839  0.95728  1.0000
  H   H664      1.0  0.86218  0.38872  0.96155  1.0000
  O   O1044     1.0  0.87406  0.42217  0.95417  1.0000
  H   H665      1.0  0.08037  0.18579  0.88961  1.0000
  H   H666      1.0  0.04881  0.19547  0.89330  1.0000
  O   O1045     1.0  0.06232  0.23439  0.89673  1.0000
  H   H667      1.0  0.20438  0.06892  0.45607  1.0000
  H   H668      1.0  0.21598  0.10329  0.48360  1.0000
  O   O1046     1.0  0.19805  0.11059  0.47304  1.0000
  H   H669      1.0  0.45485  0.42533  0.58384  1.0000
  H   H670      1.0  0.43127  0.53645  0.58501  1.0000
  O   O1047     1.0  0.45208  0.49668  0.58271  1.0000
  H   H671      1.0  0.59621  0.92445  0.78490  1.0000
  H   H672      1.0  0.61389  0.97730  0.76889  1.0000
  O   O1048     1.0  0.60133  0.94231  0.76482  1.0000
  H   H673      1.0  0.83972  0.10124  0.55947  1.0000
  H   H674      1.0  0.85091  0.10445  0.59124  1.0000
  O   O1049     1.0  0.83360  0.09979  0.58049  1.0000
  H   H675      1.0  0.35698  0.65572  0.04496  1.0000
  H   H676      1.0  0.35397  0.73078  0.01978  1.0000
  O   O1050     1.0  0.35327  0.66310  0.02440  1.0000
  H   H677      1.0  0.45601  0.51812  0.87841  1.0000
  H   H678      1.0  0.43665  0.61608  0.86400  1.0000
  O   O1051     1.0  0.43814  0.54438  0.86416  1.0000
  H   H679      1.0  0.07707  0.65088  0.98392  1.0000
  H   H680      1.0  0.06492  0.68535  0.95213  1.0000
  O   O1052     1.0  0.08180  0.66981  0.96462  1.0000
  H   H681      1.0  0.44677  0.83590  0.74766  1.0000
  H   H682      1.0  0.47165  0.72161  0.75645  1.0000
  O   O1053     1.0  0.46753  0.78508  0.74462  1.0000
  H   H683      1.0  0.95742  0.73262  0.70256  1.0000
  H   H684      1.0  0.92767  0.77726  0.68494  1.0000
  O   O1054     1.0  0.94725  0.74143  0.68519  1.0000
  H   H685      1.0  0.26275  0.53771  0.89125  1.0000
  H   H686      1.0  0.29569  0.48232  0.87917  1.0000
  O   O1055     1.0  0.27714  0.47150  0.88620  1.0000
  H   H687      1.0  0.75531  0.00941  0.76565  1.0000
  H   H688      1.0  0.74054  0.96370  0.74287  1.0000
  O   O1056     1.0  0.75510  0.94584  0.75797  1.0000
  H   H689      1.0  0.78281  0.79342  0.59630  1.0000
  H   H690      1.0  0.78821  0.70047  0.61384  1.0000
  O   O1057     1.0  0.79094  0.72081  0.59431  1.0000
  H   H691      1.0  0.58658  0.67672  0.94843  1.0000
  H   H692      1.0  0.58213  0.63286  0.92088  1.0000
  O   O1058     1.0  0.58890  0.60890  0.93993  1.0000
  H   H693      1.0  0.25965  0.03741  0.00636  1.0000
  H   H694      1.0  0.26537  0.09328  0.97821  1.0000
  O   O1059     1.0  0.27444  0.05709  0.99670  1.0000
  H   H695      1.0  0.60510  0.15327  0.61075  1.0000
  H   H696      1.0  0.60394  0.23813  0.58633  1.0000
  O   O1060     1.0  0.61237  0.20870  0.60457  1.0000
  H   H697      1.0  0.77738  0.66084  0.83462  1.0000
  H   H698      1.0  0.79777  0.63295  0.86058  1.0000
  O   O1061     1.0  0.77867  0.64231  0.85504  1.0000
  H   H699      1.0  0.50758  0.08963  0.49969  1.0000
  H   H700      1.0  0.49412  0.11601  0.46947  1.0000
  O   O1062     1.0  0.49860  0.14376  0.48701  1.0000
  H   H701      1.0  0.36225  0.25028  0.01938  1.0000
  H   H702      1.0  0.38375  0.21222  0.04532  1.0000
  O   O1063     1.0  0.36719  0.20651  0.03618  1.0000
  H   H703      1.0  0.24640  0.20311  0.73002  1.0000
  H   H704      1.0  0.22592  0.30757  0.73641  1.0000
  O   O1064     1.0  0.22690  0.23679  0.73709  1.0000
  H   H705      1.0  0.83100  0.72756  0.40059  1.0000
  H   H706      1.0  0.84757  0.67821  0.42614  1.0000
  O   O1065     1.0  0.83278  0.74615  0.41990  1.0000
  H   H707      1.0  0.16034  0.09299  0.83955  1.0000
  H   H708      1.0  0.14853  0.20831  0.83811  1.0000
  O   O1066     1.0  0.14522  0.14971  0.84779  1.0000
  H   H709      1.0  0.17141  0.85048  0.50208  1.0000
  H   H710      1.0  0.14377  0.85197  0.48197  1.0000
  O   O1067     1.0  0.16474  0.81396  0.48592  1.0000
  H   H711      1.0  0.54413  0.36481  0.93533  1.0000
  H   H712      1.0  0.54484  0.43206  0.96222  1.0000
  O   O1068     1.0  0.54494  0.36321  0.95672  1.0000
  H   H713      1.0  0.58447  0.83230  0.94149  1.0000
  H   H714      1.0  0.55466  0.85520  0.95822  1.0000
  O   O1069     1.0  0.57546  0.80834  0.95730  1.0000
  H   H715      1.0  0.33708  0.78341  0.77587  1.0000
  H   H716      1.0  0.31082  0.85334  0.75901  1.0000
  O   O1070     1.0  0.32467  0.85374  0.77323  1.0000
  H   H717      1.0  0.84890  0.86202  0.74083  1.0000
  H   H718      1.0  0.84299  0.92052  0.77042  1.0000
  O   O1071     1.0  0.85744  0.87430  0.75840  1.0000
  H   H719      1.0  0.60810  0.36192  0.48485  1.0000
  H   H720      1.0  0.59554  0.47798  0.48189  1.0000
  O   O1072     1.0  0.60607  0.42692  0.49370  1.0000
  H   H721      1.0  0.93818  0.64103  0.56564  1.0000
  H   H722      1.0  0.90674  0.67184  0.55430  1.0000
  O   O1073     1.0  0.92550  0.62063  0.55289  1.0000
  H   H723      1.0  0.74292  0.93934  0.86639  1.0000
  H   H724      1.0  0.75881  0.86741  0.89037  1.0000
  O   O1074     1.0  0.75414  0.93824  0.88334  1.0000
  H   H725      1.0  0.75154  0.11816  0.55057  1.0000
  H   H726      1.0  0.75506  0.21110  0.56095  1.0000
  O   O1075     1.0  0.76668  0.14283  0.55370  1.0000
  H   H727      1.0  0.25978  0.49632  0.03000  1.0000
  H   H728      1.0  0.24434  0.52657  0.05785  1.0000
  O   O1076     1.0  0.24392  0.48774  0.04067  1.0000
  H   H729      1.0  0.93855  0.42879  0.89402  1.0000
  H   H730      1.0  0.91578  0.53967  0.89956  1.0000
  O   O1077     1.0  0.91899  0.47307  0.88946  1.0000
  H   H731      1.0  0.80077  0.60210  0.48646  1.0000
  H   H732      1.0  0.80638  0.69945  0.49771  1.0000
  O   O1078     1.0  0.80080  0.64150  0.50414  1.0000
  H   H733      1.0  0.10858  0.23440  0.99200  1.0000
  H   H734      1.0  0.10708  0.15352  0.96885  1.0000
  O   O1079     1.0  0.10451  0.17238  0.98835  1.0000
  H   H735      1.0  0.77739  0.91458  0.54013  1.0000
  H   H736      1.0  0.80251  0.92481  0.55991  1.0000
  O   O1080     1.0  0.79316  0.88035  0.55384  1.0000
  H   H737      1.0  0.51857  0.02021  0.00955  1.0000
  H   H738      1.0  0.53011  0.06917  0.03521  1.0000
  O   O1081     1.0  0.53534  0.03539  0.01712  1.0000
  H   H739      1.0  0.88768  0.85397  0.90669  1.0000
  H   H740      1.0  0.91426  0.75101  0.90716  1.0000
  O   O1082     1.0  0.90760  0.82282  0.90016  1.0000
  H   H741      1.0  0.35750  0.91299  0.47936  1.0000
  H   H742      1.0  0.38227  0.79707  0.48837  1.0000
  O   O1083     1.0  0.36818  0.86760  0.49348  1.0000
  H   H743      1.0  0.17998  0.77127  0.62300  1.0000
  H   H744      1.0  0.15844  0.84385  0.60473  1.0000
  O   O1084     1.0  0.17860  0.81679  0.60771  1.0000
  H   H745      1.0  0.46635  0.12373  0.72342  1.0000
  H   H746      1.0  0.44021  0.16157  0.73611  1.0000
  O   O1085     1.0  0.45783  0.16437  0.73967  1.0000
  H   H747      1.0  0.40618  0.42364  0.80398  1.0000
  H   H748      1.0  0.37762  0.50183  0.80509  1.0000
  O   O1086     1.0  0.38844  0.44758  0.79258  1.0000
  H   H749      1.0  0.27879  0.26753  0.49596  1.0000
  H   H750      1.0  0.29161  0.26316  0.46717  1.0000
  O   O1087     1.0  0.28587  0.22068  0.47989  1.0000
  H   H751      1.0  0.73188  0.22953  0.44621  1.0000
  H   H752      1.0  0.72447  0.17504  0.41938  1.0000
  O   O1088     1.0  0.72214  0.18219  0.43967  1.0000
  H   H753      1.0  0.32572  0.37910  0.52247  1.0000
  H   H754      1.0  0.29379  0.39245  0.52538  1.0000
  O   O1089     1.0  0.31314  0.34841  0.53225  1.0000
  H   H755      1.0  0.46426  0.38430  0.69864  1.0000
  H   H756      1.0  0.44789  0.37460  0.67342  1.0000
  O   O1090     1.0  0.46462  0.39238  0.67784  1.0000
  H   H757      1.0  0.86533  0.76378  0.97381  1.0000
  H   H758      1.0  0.87485  0.72955  0.94188  1.0000
  O   O1091     1.0  0.88170  0.72030  0.96177  1.0000
  H   H759      1.0  0.79082  0.41146  0.85073  1.0000
  H   H760      1.0  0.77818  0.52226  0.86258  1.0000
  O   O1092     1.0  0.78118  0.44979  0.86717  1.0000
  H   H761      1.0  0.28985  0.68097  0.55448  1.0000
  H   H762      1.0  0.25849  0.69249  0.56537  1.0000
  O   O1093     1.0  0.27869  0.67624  0.57208  1.0000
  H   H763      1.0  0.58588  0.98901  0.68567  1.0000
  H   H764      1.0  0.59966  0.07458  0.68753  1.0000
  O   O1094     1.0  0.59930  0.01655  0.67640  1.0000
  H   H765      1.0  0.66256  0.12259  0.94523  1.0000
  H   H766      1.0  0.69713  0.07183  0.94492  1.0000
  O   O1095     1.0  0.68003  0.12114  0.95520  1.0000
  H   H767      1.0  0.48684  0.71882  0.70922  1.0000
  H   H768      1.0  0.50261  0.70264  0.67986  1.0000
  O   O1096     1.0  0.49877  0.66601  0.69589  1.0000
  H   H769      1.0  0.79061  0.22435  0.40578  1.0000
  H   H770      1.0  0.78236  0.24218  0.43924  1.0000
  O   O1097     1.0  0.79612  0.24536  0.42437  1.0000
  H   H771      1.0  0.72470  0.32060  0.59339  1.0000
  H   H772      1.0  0.73225  0.38321  0.56808  1.0000
  O   O1098     1.0  0.74054  0.32579  0.58090  1.0000
  H   H773      1.0  0.68454  0.44065  0.41065  1.0000
  H   H774      1.0  0.70640  0.32767  0.40105  1.0000
  O   O1099     1.0  0.70129  0.40024  0.39937  1.0000
  H   H775      1.0  0.17956  0.30622  0.83064  1.0000
  H   H776      1.0  0.15524  0.33091  0.80666  1.0000
  O   O1100     1.0  0.15976  0.30847  0.82649  1.0000
  H   H777      1.0  0.38578  0.87790  0.54602  1.0000
  H   H778      1.0  0.38762  0.91763  0.51601  1.0000
  O   O1101     1.0  0.39708  0.90636  0.53419  1.0000
  H   H779      1.0  0.29558  0.95174  0.98208  1.0000
  H   H780      1.0  0.30253  0.94358  0.94888  1.0000
  O   O1102     1.0  0.30765  0.90450  0.96725  1.0000
  H   H781      1.0  0.32556  0.21115  0.53435  1.0000
  H   H782      1.0  0.34016  0.10153  0.54698  1.0000
  O   O1103     1.0  0.32874  0.14285  0.53190  1.0000
  H   H783      1.0  0.30739  0.94499  0.53220  1.0000
  H   H784      1.0  0.33650  0.87142  0.52126  1.0000
  O   O1104     1.0  0.32189  0.87089  0.53373  1.0000
  H   H785      1.0  0.11231  0.38385  0.97976  1.0000
  H   H786      1.0  0.10069  0.38370  0.01189  1.0000
  O   O1105     1.0  0.11504  0.34507  0.99789  1.0000
  H   H787      1.0  0.69042  0.72886  0.50079  1.0000
  H   H788      1.0  0.70290  0.66981  0.52912  1.0000
  O   O1106     1.0  0.68626  0.72571  0.52030  1.0000
  H   H789      1.0  0.58992  0.16354  0.80997  1.0000
  H   H790      1.0  0.59072  0.15906  0.84441  1.0000
  O   O1107     1.0  0.57859  0.16144  0.82746  1.0000
  H   H791      1.0  0.85839  0.20719  0.41156  1.0000
  H   H792      1.0  0.83181  0.24221  0.43137  1.0000
  O   O1108     1.0  0.85195  0.23616  0.43102  1.0000
  H   H793      1.0  0.91325  0.59428  0.59313  1.0000
  H   H794      1.0  0.89869  0.61837  0.62651  1.0000
  O   O1109     1.0  0.89713  0.63597  0.60529  1.0000
  H   H795      1.0  0.64632  0.72364  0.92738  1.0000
  H   H796      1.0  0.64375  0.62765  0.90933  1.0000
  O   O1110     1.0  0.64833  0.69049  0.90843  1.0000
  H   H797      1.0  0.09590  0.72863  0.74110  1.0000
  H   H798      1.0  0.12051  0.77560  0.74453  1.0000
  O   O1111     1.0  0.11199  0.73102  0.75279  1.0000
  H   H799      1.0  0.78213  0.23809  0.86373  1.0000
  H   H800      1.0  0.75529  0.20697  0.85129  1.0000
  O   O1112     1.0  0.76351  0.23233  0.86670  1.0000
  H   H801      1.0  0.09153  0.77839  0.65450  1.0000
  H   H802      1.0  0.09342  0.83278  0.68326  1.0000
  O   O1113     1.0  0.10388  0.77411  0.67026  1.0000
  H   H803      1.0  0.64430  0.43114  0.48924  1.0000
  H   H804      1.0  0.65855  0.51000  0.49264  1.0000
  O   O1114     1.0  0.66094  0.44337  0.48427  1.0000
  H   H805      1.0  0.39284  0.66864  0.63386  1.0000
  H   H806      1.0  0.36958  0.72578  0.65641  1.0000
  O   O1115     1.0  0.38868  0.67211  0.65460  1.0000
  H   H807      1.0  0.83013  0.89920  0.65529  1.0000
  H   H808      1.0  0.80622  0.86229  0.64658  1.0000
  O   O1116     1.0  0.82077  0.89083  0.63854  1.0000
  H   H809      1.0  0.64211  0.55016  0.98097  1.0000
  H   H810      1.0  0.65419  0.64072  0.97557  1.0000
  O   O1117     1.0  0.64727  0.60590  0.98994  1.0000
  H   H811      1.0  0.53612  0.11619  0.86460  1.0000
  H   H812      1.0  0.52167  0.23551  0.86375  1.0000
  O   O1118     1.0  0.52491  0.17887  0.87628  1.0000
  H   H813      1.0  0.83206  0.35045  0.65859  1.0000
  H   H814      1.0  0.81004  0.44116  0.64526  1.0000
  O   O1119     1.0  0.82995  0.41971  0.65210  1.0000
  H   H815      1.0  0.41842  0.32613  0.53314  1.0000
  H   H816      1.0  0.39468  0.38138  0.55499  1.0000
  O   O1120     1.0  0.40052  0.38330  0.53595  1.0000
  H   H817      1.0  0.82980  0.18979  0.69019  1.0000
  H   H818      1.0  0.86249  0.15774  0.68325  1.0000
  O   O1121     1.0  0.84518  0.21869  0.68613  1.0000
  H   H819      1.0  0.45807  0.84948  0.66509  1.0000
  H   H820      1.0  0.44368  0.93575  0.68277  1.0000
  O   O1122     1.0  0.43966  0.87791  0.67510  1.0000
  H   H821      1.0  0.17741  0.80030  0.97141  1.0000
  H   H822      1.0  0.20726  0.72133  0.96937  1.0000
  O   O1123     1.0  0.19467  0.76755  0.98168  1.0000
  H   H823      1.0  0.29513  0.22705  0.01512  1.0000
  H   H824      1.0  0.28295  0.27951  0.98667  1.0000
  O   O1124     1.0  0.29559  0.28367  0.00196  1.0000
  H   H825      1.0  0.62400  0.74219  0.46209  1.0000
  H   H826      1.0  0.59067  0.75030  0.46895  1.0000
  O   O1125     1.0  0.60926  0.75003  0.47716  1.0000
  H   H827      1.0  0.59020  0.57544  0.80417  1.0000
  H   H828      1.0  0.59092  0.47055  0.79249  1.0000
  O   O1126     1.0  0.58362  0.51770  0.80826  1.0000
  H   H829      1.0  0.84113  0.85493  0.90321  1.0000
  H   H830      1.0  0.83114  0.78520  0.92388  1.0000
  O   O1127     1.0  0.84741  0.79477  0.91564  1.0000
  H   H831      1.0  0.81087  0.23248  0.59280  1.0000
  H   H832      1.0  0.77884  0.30644  0.58801  1.0000
  O   O1128     1.0  0.79677  0.30431  0.59557  1.0000
  H   H833      1.0  0.52232  0.29743  0.97865  1.0000
  H   H834      1.0  0.51935  0.19586  0.97827  1.0000
  O   O1129     1.0  0.51311  0.25912  0.98913  1.0000
  H   H835      1.0  0.79213  0.75415  0.72741  1.0000
  H   H836      1.0  0.78275  0.66280  0.72937  1.0000
  O   O1130     1.0  0.78209  0.71304  0.71654  1.0000
  H   H837      1.0  0.36449  0.60010  0.84192  1.0000
  H   H838      1.0  0.36917  0.66884  0.81876  1.0000
  O   O1131     1.0  0.35601  0.63187  0.82404  1.0000
  H   H839      1.0  0.54391  0.44369  0.72985  1.0000
  H   H840      1.0  0.52949  0.41293  0.75647  1.0000
  O   O1132     1.0  0.54802  0.39445  0.74532  1.0000
  H   H841      1.0  0.80943  0.92326  0.48533  1.0000
  H   H842      1.0  0.80366  0.03844  0.48752  1.0000
  O   O1133     1.0  0.80365  0.98598  0.47418  1.0000
  H   H843      1.0  0.29165  0.12353  0.72986  1.0000
  H   H844      1.0  0.28721  0.18664  0.70366  1.0000
  O   O1134     1.0  0.27737  0.14970  0.71397  1.0000
  H   H845      1.0  0.53972  0.00325  0.52977  1.0000
  H   H846      1.0  0.50973  0.97671  0.53481  1.0000
  O   O1135     1.0  0.52075  0.00328  0.52222  1.0000
  H   H847      1.0  0.20571  0.78820  0.54908  1.0000
  H   H848      1.0  0.20323  0.74119  0.58002  1.0000
  O   O1136     1.0  0.21433  0.73103  0.56182  1.0000
  H   H849      1.0  0.65910  0.19839  0.67822  1.0000
  H   H850      1.0  0.64681  0.28806  0.69849  1.0000
  O   O1137     1.0  0.64087  0.23965  0.68759  1.0000
  H   H851      1.0  0.18400  0.92701  0.01542  1.0000
  H   H852      1.0  0.20512  0.83263  0.00290  1.0000
  O   O1138     1.0  0.20365  0.88594  0.01750  1.0000
  H   H853      1.0  0.69728  0.84034  0.97755  1.0000
  H   H854      1.0  0.70101  0.80253  0.94838  1.0000
  O   O1139     1.0  0.69126  0.86569  0.95859  1.0000
  H   H855      1.0  0.82980  0.90769  0.70401  1.0000
  H   H856      1.0  0.84279  0.78419  0.70875  1.0000
  O   O1140     1.0  0.84655  0.84439  0.70303  1.0000
  H   H857      1.0  0.29824  0.16235  0.84688  1.0000
  H   H858      1.0  0.26967  0.18850  0.82740  1.0000
  O   O1141     1.0  0.28295  0.13442  0.83795  1.0000
  H   H859      1.0  0.83472  0.58732  0.77876  1.0000
  H   H860      1.0  0.80812  0.66083  0.79356  1.0000
  O   O1142     1.0  0.82769  0.65390  0.78797  1.0000
  H   H861      1.0  0.59031  0.84485  0.82005  1.0000
  H   H862      1.0  0.58189  0.95466  0.83340  1.0000
  O   O1143     1.0  0.59653  0.90301  0.82203  1.0000
  H   H863      1.0  0.14983  0.60380  0.99114  1.0000
  H   H864      1.0  0.17192  0.60195  0.01651  1.0000
  O   O1144     1.0  0.16504  0.56023  0.00295  1.0000
  H   H865      1.0  0.73166  0.06139  0.45718  1.0000
  H   H866      1.0  0.76420  0.97709  0.45846  1.0000
  O   O1145     1.0  0.74425  0.99070  0.46110  1.0000
  H   H867      1.0  0.50338  0.01083  0.65659  1.0000
  H   H868      1.0  0.52046  0.96306  0.68607  1.0000
  O   O1146     1.0  0.50432  0.96782  0.67330  1.0000
  H   H869      1.0  0.37955  0.88457  0.84269  1.0000
  H   H870      1.0  0.40466  0.78991  0.85608  1.0000
  O   O1147     1.0  0.38473  0.81351  0.84988  1.0000
  H   H871      1.0  0.76385  0.39492  0.81083  1.0000
  H   H872      1.0  0.74679  0.48673  0.78792  1.0000
  O   O1148     1.0  0.74687  0.43360  0.80042  1.0000
  H   H873      1.0  0.06188  0.32566  0.44562  1.0000
  H   H874      1.0  0.07679  0.20409  0.45984  1.0000
  O   O1149     1.0  0.06162  0.25807  0.44608  1.0000
  H   H875      1.0  0.66553  0.78869  0.96095  1.0000
  H   H876      1.0  0.63555  0.84494  0.95981  1.0000
  O   O1150     1.0  0.64794  0.77399  0.96032  1.0000
  H   H877      1.0  0.43365  0.07009  0.90704  1.0000
  H   H878      1.0  0.43991  0.06161  0.87108  1.0000
  O   O1151     1.0  0.44082  0.09461  0.88955  1.0000
  H   H879      1.0  0.37904  0.72131  0.58395  1.0000
  H   H880      1.0  0.37279  0.62850  0.59822  1.0000
  O   O1152     1.0  0.38722  0.64816  0.58924  1.0000
  H   H881      1.0  0.43816  0.22673  0.64140  1.0000
  H   H882      1.0  0.45535  0.24218  0.61441  1.0000
  O   O1153     1.0  0.44622  0.19929  0.62284  1.0000
  H   H883      1.0  0.49295  0.70669  0.00708  1.0000
  H   H884      1.0  0.48645  0.68235  0.03706  1.0000
  O   O1154     1.0  0.48468  0.74020  0.02542  1.0000
  H   H885      1.0  0.22936  0.75114  0.78630  1.0000
  H   H886      1.0  0.24841  0.74786  0.80999  1.0000
  O   O1155     1.0  0.24959  0.73474  0.79041  1.0000
  H   H887      1.0  0.22538  0.97974  0.77873  1.0000
  H   H888      1.0  0.21931  0.08210  0.78798  1.0000
  O   O1156     1.0  0.20824  0.03772  0.78198  1.0000
  H   H889      1.0  0.92428  0.19495  0.90829  1.0000
  H   H890      1.0  0.94323  0.20339  0.88536  1.0000
  O   O1157     1.0  0.94383  0.18146  0.90494  1.0000
  H   H891      1.0  0.73612  0.92410  0.52744  1.0000
  H   H892      1.0  0.74655  0.96488  0.50023  1.0000
  O   O1158     1.0  0.74434  0.97140  0.52029  1.0000
  H   H893      1.0  0.53651  0.98413  0.84843  1.0000
  H   H894      1.0  0.54216  0.05110  0.82656  1.0000
  O   O1159     1.0  0.55144  0.01878  0.84466  1.0000
  H   H895      1.0  0.06590  0.41904  0.76584  1.0000
  H   H896      1.0  0.07453  0.31139  0.77194  1.0000
  O   O1160     1.0  0.06270  0.35751  0.75824  1.0000
  H   H897      1.0  0.29213  0.54679  0.68039  1.0000
  H   H898      1.0  0.30360  0.53147  0.65253  1.0000
  O   O1161     1.0  0.31106  0.52305  0.67287  1.0000
  H   H899      1.0  0.40467  0.13009  0.71623  1.0000
  H   H900      1.0  0.39040  0.17100  0.74330  1.0000
  O   O1162     1.0  0.40834  0.11950  0.73574  1.0000
  H   H901      1.0  0.78524  0.18058  0.01344  1.0000
  H   H902      1.0  0.79296  0.13817  0.98248  1.0000
  O   O1163     1.0  0.79526  0.11832  0.00246  1.0000
  H   H903      1.0  0.26567  0.08601  0.86499  1.0000
  H   H904      1.0  0.24685  0.13445  0.88932  1.0000
  O   O1164     1.0  0.25796  0.07007  0.88134  1.0000
  H   H905      1.0  0.51967  0.59472  0.97753  1.0000
  H   H906      1.0  0.48868  0.58528  0.98981  1.0000
  O   O1165     1.0  0.49803  0.62413  0.98047  1.0000
  H   H907      1.0  0.70943  0.07626  0.51686  1.0000
  H   H908      1.0  0.70035  0.15418  0.54109  1.0000
  O   O1166     1.0  0.69742  0.14609  0.52024  1.0000
  H   H909      1.0  0.79043  0.24757  0.50903  1.0000
  H   H910      1.0  0.78457  0.16204  0.52655  1.0000
  O   O1167     1.0  0.79672  0.17514  0.51129  1.0000
  H   H911      1.0  0.49783  0.45010  0.89831  1.0000
  H   H912      1.0  0.47575  0.54406  0.91359  1.0000
  O   O1168     1.0  0.47716  0.47840  0.90331  1.0000
  H   H913      1.0  0.45901  0.29627  0.91235  1.0000
  H   H914      1.0  0.45713  0.40563  0.91566  1.0000
  O   O1169     1.0  0.44535  0.36311  0.91393  1.0000
  H   H915      1.0  0.39656  0.61608  0.55149  1.0000
  H   H916      1.0  0.39941  0.52375  0.53147  1.0000
  O   O1170     1.0  0.40176  0.58906  0.53228  1.0000
  H   H917      1.0  0.66160  0.15046  0.51846  1.0000
  H   H918      1.0  0.64311  0.08180  0.51464  1.0000
  O   O1171     1.0  0.64221  0.15410  0.51707  1.0000
  H   H919      1.0  0.05852  0.80095  0.91216  1.0000
  H   H920      1.0  0.05655  0.89298  0.89436  1.0000
  O   O1172     1.0  0.06942  0.84756  0.90681  1.0000
  H   H921      1.0  0.47134  0.13250  0.90111  1.0000
  H   H922      1.0  0.49644  0.17157  0.89206  1.0000
  O   O1173     1.0  0.48436  0.16244  0.90762  1.0000
  H   H923      1.0  0.53253  0.36529  0.65947  1.0000
  H   H924      1.0  0.56164  0.36407  0.65429  1.0000
  O   O1174     1.0  0.54266  0.40917  0.65610  1.0000
  H   H925      1.0  0.45381  0.28609  0.56258  1.0000
  H   H926      1.0  0.48266  0.28632  0.57297  1.0000
  O   O1175     1.0  0.46287  0.30288  0.57960  1.0000
  H   H927      1.0  0.23973  0.07002  0.67606  1.0000
  H   H928      1.0  0.26422  0.06910  0.69837  1.0000
  O   O1176     1.0  0.25874  0.03443  0.68329  1.0000
  H   H929      1.0  0.20512  0.42612  0.57875  1.0000
  H   H930      1.0  0.21612  0.51346  0.56805  1.0000
  O   O1177     1.0  0.21548  0.47083  0.58348  1.0000
  H   H931      1.0  0.33479  0.05635  0.60194  1.0000
  H   H932      1.0  0.36250  0.05277  0.58940  1.0000
  O   O1178     1.0  0.34570  0.04006  0.58376  1.0000
  H   H933      1.0  0.14153  0.92351  0.97818  1.0000
  H   H934      1.0  0.14004  0.89255  0.94392  1.0000
  O   O1179     1.0  0.13626  0.87833  0.96345  1.0000
  H   H935      1.0  0.45146  0.09184  0.81914  1.0000
  H   H936      1.0  0.43301  0.02632  0.82807  1.0000
  O   O1180     1.0  0.45031  0.04328  0.83442  1.0000
  H   H937      1.0  0.16171  0.89333  0.54585  1.0000
  H   H938      1.0  0.18545  0.93873  0.53718  1.0000
  O   O1181     1.0  0.17865  0.88540  0.53414  1.0000
  H   H939      1.0  0.84605  0.56449  0.55432  1.0000
  H   H940      1.0  0.82319  0.59116  0.52736  1.0000
  O   O1182     1.0  0.83775  0.53357  0.53901  1.0000
  H   H941      1.0  0.48119  0.69543  0.60758  1.0000
  H   H942      1.0  0.51202  0.63176  0.60574  1.0000
  O   O1183     1.0  0.49938  0.70312  0.60420  1.0000
  H   H943      1.0  0.54876  0.47241  0.68742  1.0000
  H   H944      1.0  0.53352  0.57557  0.70157  1.0000
  O   O1184     1.0  0.55006  0.51672  0.70297  1.0000
  H   H945      1.0  0.45421  0.58352  0.01690  1.0000
  H   H946      1.0  0.46361  0.49104  0.99862  1.0000
  O   O1185     1.0  0.47178  0.52167  0.01408  1.0000
  H   H947      1.0  0.78587  0.55848  0.00568  1.0000
  H   H948      1.0  0.79943  0.59508  0.97872  1.0000
  O   O1186     1.0  0.78156  0.58062  0.98539  1.0000
  H   H949      1.0  0.63403  0.91270  0.57110  1.0000
  H   H950      1.0  0.65375  0.98010  0.57164  1.0000
  O   O1187     1.0  0.65084  0.92035  0.56312  1.0000
  H   H951      1.0  0.08578  0.74640  0.55204  1.0000
  H   H952      1.0  0.06513  0.69925  0.53720  1.0000
  O   O1188     1.0  0.06678  0.76381  0.54411  1.0000
  H   H953      1.0  0.74089  0.33262  0.77741  1.0000
  H   H954      1.0  0.75079  0.21599  0.76731  1.0000
  O   O1189     1.0  0.74197  0.28457  0.76064  1.0000
  H   H955      1.0  0.89933  0.75866  0.61291  1.0000
  H   H956      1.0  0.87986  0.87212  0.60905  1.0000
  O   O1190     1.0  0.89795  0.82824  0.61832  1.0000
  H   H957      1.0  0.47562  0.07783  0.03100  1.0000
  H   H958      1.0  0.48285  0.96738  0.02692  1.0000
  O   O1191     1.0  0.47600  0.03024  0.01685  1.0000
  H   H959      1.0  0.12570  0.55686  0.59368  1.0000
  H   H960      1.0  0.14443  0.58734  0.61509  1.0000
  O   O1192     1.0  0.12710  0.61555  0.60383  1.0000
  H   H961      1.0  0.27189  0.71951  0.98675  1.0000
  H   H962      1.0  0.25123  0.78662  0.00886  1.0000
  O   O1193     1.0  0.25261  0.76278  0.98924  1.0000
  H   H963      1.0  0.31704  0.95750  0.80357  1.0000
  H   H964      1.0  0.30345  0.06191  0.81995  1.0000
  O   O1194     1.0  0.31741  0.02304  0.80605  1.0000
  H   H965      1.0  0.11001  0.11712  0.48323  1.0000
  H   H966      1.0  0.08192  0.10319  0.49938  1.0000
  O   O1195     1.0  0.08914  0.13782  0.48533  1.0000
  H   H967      1.0  0.62898  0.21419  0.48702  1.0000
  H   H968      1.0  0.63457  0.23323  0.45401  1.0000
  O   O1196     1.0  0.62010  0.23018  0.46796  1.0000
  H   H969      1.0  0.86337  0.45906  0.52388  1.0000
  H   H970      1.0  0.89716  0.40926  0.51931  1.0000
  O   O1197     1.0  0.87945  0.40318  0.51304  1.0000
  H   H971      1.0  0.51941  0.86417  0.91567  1.0000
  H   H972      1.0  0.51612  0.97015  0.91733  1.0000
  O   O1198     1.0  0.51976  0.91260  0.93089  1.0000
  H   H973      1.0  0.99418  0.46767  0.83025  1.0000
  H   H974      1.0  0.98918  0.36446  0.82931  1.0000
  O   O1199     1.0  0.00330  0.39532  0.82848  1.0000
  H   H975      1.0  0.65011  0.55501  0.54363  1.0000
  H   H976      1.0  0.64705  0.45560  0.55746  1.0000
  O   O1200     1.0  0.65600  0.50928  0.56023  1.0000
  H   H977      1.0  0.75572  0.41717  0.88876  1.0000
  H   H978      1.0  0.74292  0.32857  0.89172  1.0000
  O   O1201     1.0  0.73791  0.40454  0.89666  1.0000
  H   H979      1.0  0.81033  0.47781  0.55616  1.0000
  H   H980      1.0  0.80138  0.39839  0.57230  1.0000
  O   O1202     1.0  0.79371  0.46071  0.56192  1.0000
  H   H981      1.0  0.41471  0.98426  0.74294  1.0000
  H   H982      1.0  0.39304  0.93217  0.74862  1.0000
  O   O1203     1.0  0.41340  0.91934  0.74887  1.0000
  H   H983      1.0  0.46939  0.73086  0.47267  1.0000
  H   H984      1.0  0.46517  0.76291  0.50332  1.0000
  O   O1204     1.0  0.47624  0.76790  0.48579  1.0000
  H   H985      1.0  0.37347  0.24314  0.47260  1.0000
  H   H986      1.0  0.37343  0.35162  0.47326  1.0000
  O   O1205     1.0  0.38102  0.29076  0.46327  1.0000
  H   H987      1.0  0.64445  0.10836  0.76971  1.0000
  H   H988      1.0  0.64772  0.02684  0.75015  1.0000
  O   O1206     1.0  0.63219  0.07945  0.76060  1.0000
  H   H989      1.0  0.73928  0.37209  0.45886  1.0000
  H   H990      1.0  0.74721  0.29499  0.48284  1.0000
  O   O1207     1.0  0.75062  0.30159  0.46229  1.0000
  H   H991      1.0  0.37350  0.36499  0.73895  1.0000
  H   H992      1.0  0.37875  0.34763  0.77160  1.0000
  O   O1208     1.0  0.37266  0.32088  0.75447  1.0000
  H   H993      1.0  0.93687  0.54334  0.65392  1.0000
  H   H994      1.0  0.95307  0.60647  0.66720  1.0000
  O   O1209     1.0  0.95421  0.55692  0.65160  1.0000
  H   H995      1.0  0.48614  0.97472  0.84444  1.0000
  H   H996      1.0  0.51010  0.89017  0.83025  1.0000
  O   O1210     1.0  0.50600  0.93437  0.84714  1.0000
  H   H997      1.0  0.06594  0.04772  0.54387  1.0000
  H   H998      1.0  0.05392  0.02503  0.51327  1.0000
  O   O1211     1.0  0.06056  0.07140  0.52479  1.0000
  H   H999      1.0  0.09314  0.89942  0.48698  1.0000
  H   H1000     1.0  0.10144  0.94220  0.45423  1.0000
  O   O1212     1.0  0.10849  0.89605  0.47250  1.0000
  H   H1001     1.0  0.49180  0.88506  0.56271  1.0000
  H   H1002     1.0  0.47273  0.99457  0.55097  1.0000
  O   O1213     1.0  0.48718  0.95841  0.56539  1.0000
  H   H1003     1.0  0.21864  0.22914  0.61913  1.0000
  H   H1004     1.0  0.20657  0.16061  0.60362  1.0000
  O   O1214     1.0  0.22447  0.15498  0.61329  1.0000
  H   H1005     1.0  0.33629  0.86706  0.99696  1.0000
  H   H1006     1.0  0.36275  0.87619  0.01439  1.0000
  O   O1215     1.0  0.34782  0.85065  0.01404  1.0000
  H   H1007     1.0  0.15334  0.37575  0.91715  1.0000
  H   H1008     1.0  0.13536  0.38800  0.88951  1.0000
  O   O1216     1.0  0.13939  0.34939  0.90832  1.0000
  H   H1009     1.0  0.98443  0.61422  0.52284  1.0000
  H   H1010     1.0  0.99207  0.50831  0.53454  1.0000
  O   O1217     1.0  0.98638  0.54622  0.51601  1.0000
  H   H1011     1.0  0.58852  0.23869  0.46271  1.0000
  H   H1012     1.0  0.57963  0.14943  0.45470  1.0000
  O   O1218     1.0  0.57256  0.22401  0.45441  1.0000
  H   H1013     1.0  0.67028  0.59189  0.65883  1.0000
  H   H1014     1.0  0.65794  0.50730  0.66653  1.0000
  O   O1219     1.0  0.66659  0.55559  0.67419  1.0000
  H   H1015     1.0  0.60885  0.95839  0.92267  1.0000
  H   H1016     1.0  0.58307  0.05047  0.91329  1.0000
  O   O1220     1.0  0.59758  0.98758  0.90603  1.0000
  H   H1017     1.0  0.18244  0.59524  0.85723  1.0000
  H   H1018     1.0  0.18620  0.69590  0.84323  1.0000
  O   O1221     1.0  0.19642  0.62840  0.85021  1.0000
  H   H1019     1.0  0.16232  0.60301  0.49945  1.0000
  H   H1020     1.0  0.16605  0.70452  0.50682  1.0000
  O   O1222     1.0  0.16595  0.64359  0.51629  1.0000
  H   H1021     1.0  0.63315  0.95585  0.49945  1.0000
  H   H1022     1.0  0.64877  0.93282  0.52890  1.0000
  O   O1223     1.0  0.64978  0.95955  0.50940  1.0000
  H   H1023     1.0  0.71844  0.46183  0.83392  1.0000
  H   H1024     1.0  0.71798  0.44755  0.86594  1.0000
  O   O1224     1.0  0.70461  0.48335  0.85087  1.0000
  H   H1025     1.0  0.89494  0.71416  0.75738  1.0000
  H   H1026     1.0  0.92743  0.66915  0.75478  1.0000
  O   O1225     1.0  0.91141  0.66096  0.76672  1.0000
  H   H1027     1.0  0.61675  0.74672  0.66711  1.0000
  H   H1028     1.0  0.63947  0.66186  0.68225  1.0000
  O   O1226     1.0  0.62319  0.72565  0.68643  1.0000
  H   H1029     1.0  0.14621  0.48821  0.02704  1.0000
  H   H1030     1.0  0.13531  0.50352  0.05894  1.0000
  O   O1227     1.0  0.13885  0.46153  0.04291  1.0000
  H   H1031     1.0  0.23512  0.42171  0.67967  1.0000
  H   H1032     1.0  0.24726  0.45670  0.65215  1.0000
  O   O1228     1.0  0.24916  0.39755  0.66483  1.0000
  H   H1033     1.0  0.13493  0.39587  0.59253  1.0000
  H   H1034     1.0  0.10892  0.43375  0.56999  1.0000
  O   O1229     1.0  0.12672  0.44327  0.57742  1.0000
  H   H1035     1.0  0.12928  0.55415  0.47376  1.0000
  H   H1036     1.0  0.15235  0.51855  0.44933  1.0000
  O   O1230     1.0  0.14702  0.56602  0.46755  1.0000
  H   H1037     1.0  0.71505  0.60122  0.46973  1.0000
  H   H1038     1.0  0.71148  0.70780  0.45404  1.0000
  O   O1231     1.0  0.70209  0.66186  0.45929  1.0000
  H   H1039     1.0  0.61461  0.34907  0.89670  1.0000
  H   H1040     1.0  0.59448  0.43423  0.91402  1.0000
  O   O1232     1.0  0.60698  0.36185  0.91503  1.0000
  H   H1041     1.0  0.09773  0.49750  0.94657  1.0000
  H   H1042     1.0  0.11389  0.38895  0.93171  1.0000
  O   O1233     1.0  0.09985  0.42433  0.94710  1.0000
  H   H1043     1.0  0.19256  0.91087  0.68339  1.0000
  H   H1044     1.0  0.18819  0.95031  0.71444  1.0000
  O   O1234     1.0  0.19947  0.89384  0.70235  1.0000
  H   H1045     1.0  0.66128  0.65355  0.51057  1.0000
  H   H1046     1.0  0.63200  0.64806  0.49960  1.0000
  O   O1235     1.0  0.64990  0.60867  0.50883  1.0000
  H   H1047     1.0  0.50508  0.14065  0.93769  1.0000
  H   H1048     1.0  0.53553  0.12797  0.93848  1.0000
  O   O1236     1.0  0.52322  0.10300  0.94935  1.0000
  H   H1049     1.0  0.92984  0.96526  0.96503  1.0000
  H   H1050     1.0  0.90863  0.02097  0.98912  1.0000
  O   O1237     1.0  0.92481  0.02310  0.97780  1.0000
  H   H1051     1.0  0.78304  0.89829  0.85699  1.0000
  H   H1052     1.0  0.80143  0.79088  0.84919  1.0000
  O   O1238     1.0  0.79644  0.85889  0.84254  1.0000
  H   H1053     1.0  0.17621  0.55731  0.75723  1.0000
  H   H1054     1.0  0.14098  0.60890  0.75480  1.0000
  O   O1239     1.0  0.15759  0.54634  0.75388  1.0000
  H   H1055     1.0  0.82404  0.25948  0.79791  1.0000
  H   H1056     1.0  0.84607  0.20315  0.77521  1.0000
  O   O1240     1.0  0.82756  0.21443  0.78294  1.0000
  H   H1057     1.0  0.70945  0.23560  0.51139  1.0000
  H   H1058     1.0  0.69227  0.33536  0.49604  1.0000
  O   O1241     1.0  0.70973  0.30633  0.50778  1.0000
  H   H1059     1.0  0.39313  0.71220  0.78267  1.0000
  H   H1060     1.0  0.39165  0.76399  0.81393  1.0000
  O   O1242     1.0  0.38176  0.73721  0.79951  1.0000
  H   H1061     1.0  0.91296  0.85110  0.58147  1.0000
  H   H1062     1.0  0.90458  0.92106  0.55353  1.0000
  O   O1243     1.0  0.91983  0.88859  0.56744  1.0000
  H   H1063     1.0  0.51764  0.82262  0.78652  1.0000
  H   H1064     1.0  0.50934  0.75595  0.80826  1.0000
  O   O1244     1.0  0.52146  0.79913  0.80613  1.0000
  H   H1065     1.0  0.35602  0.44694  0.00607  1.0000
  H   H1066     1.0  0.36508  0.54223  0.01568  1.0000
  O   O1245     1.0  0.37199  0.46436  0.01286  1.0000
  H   H1067     1.0  0.23026  0.83725  0.64188  1.0000
  H   H1068     1.0  0.20139  0.88737  0.62734  1.0000
  O   O1246     1.0  0.22066  0.89629  0.63096  1.0000
  H   H1069     1.0  0.72889  0.96238  0.91929  1.0000
  H   H1070     1.0  0.71226  0.92606  0.94446  1.0000
  O   O1247     1.0  0.72298  0.96984  0.93935  1.0000
  H   H1071     1.0  0.13667  0.13259  0.92275  1.0000
  H   H1072     1.0  0.10762  0.22392  0.92594  1.0000
  O   O1248     1.0  0.11877  0.16319  0.93455  1.0000
  H   H1073     1.0  0.52772  0.47851  0.54713  1.0000
  H   H1074     1.0  0.52294  0.49929  0.57708  1.0000
  O   O1249     1.0  0.51531  0.46658  0.56236  1.0000
  H   H1075     1.0  0.83609  0.36931  0.82925  1.0000
  H   H1076     1.0  0.82269  0.29850  0.84465  1.0000
  O   O1250     1.0  0.81968  0.34904  0.82979  1.0000
  H   H1077     1.0  0.96230  0.07200  0.82852  1.0000
  H   H1078     1.0  0.95752  0.97817  0.81788  1.0000
  O   O1251     1.0  0.97124  0.01205  0.81654  1.0000
  H   H1079     1.0  0.70217  0.24403  0.02067  1.0000
  H   H1080     1.0  0.71040  0.28467  0.99020  1.0000
  O   O1252     1.0  0.70517  0.29815  0.00960  1.0000
  H   H1081     1.0  0.78643  0.87274  0.74779  1.0000
  H   H1082     1.0  0.81391  0.77554  0.75647  1.0000
  O   O1253     1.0  0.80526  0.82513  0.74127  1.0000
  H   H1083     1.0  0.03847  0.62365  0.87295  1.0000
  H   H1084     1.0  0.04784  0.53092  0.89697  1.0000
  O   O1254     1.0  0.03298  0.59979  0.89141  1.0000
  H   H1085     1.0  0.70520  0.18215  0.67133  1.0000
  H   H1086     1.0  0.70447  0.09824  0.69260  1.0000
  O   O1255     1.0  0.69432  0.13643  0.67573  1.0000
  H   H1087     1.0  0.34659  0.30379  0.97532  1.0000
  H   H1088     1.0  0.32401  0.30145  0.99603  1.0000
  O   O1256     1.0  0.34096  0.31958  0.99495  1.0000
  H   H1089     1.0  0.90819  0.76038  0.82548  1.0000
  H   H1090     1.0  0.91423  0.68900  0.79806  1.0000
  O   O1257     1.0  0.92042  0.69553  0.81682  1.0000
  H   H1091     1.0  0.44410  0.34448  0.98762  1.0000
  H   H1092     1.0  0.47794  0.30805  0.99564  1.0000
  O   O1258     1.0  0.45792  0.34948  0.00203  1.0000
  H   H1093     1.0  0.85748  0.34737  0.61243  1.0000
  H   H1094     1.0  0.88119  0.34239  0.59135  1.0000
  O   O1259     1.0  0.87456  0.29599  0.60260  1.0000
  H   H1095     1.0  0.01782  0.16222  0.96397  1.0000
  H   H1096     1.0  0.98441  0.21769  0.96303  1.0000
  O   O1260     1.0  0.99931  0.15994  0.97252  1.0000
  H   H1097     1.0  0.39025  0.80449  0.93684  1.0000
  H   H1098     1.0  0.38376  0.91535  0.92909  1.0000
  O   O1261     1.0  0.39938  0.85508  0.93613  1.0000
  H   H1099     1.0  0.60919  0.02372  0.97795  1.0000
  H   H1100     1.0  0.62910  0.03077  0.95431  1.0000
  O   O1262     1.0  0.62228  0.98187  0.96343  1.0000
  H   H1101     1.0  0.78399  0.43631  0.39444  1.0000
  H   H1102     1.0  0.81499  0.35036  0.38997  1.0000
  O   O1263     1.0  0.80361  0.42058  0.38904  1.0000
  H   H1103     1.0  0.58879  0.94067  0.57357  1.0000
  H   H1104     1.0  0.60516  0.95295  0.59928  1.0000
  O   O1264     1.0  0.60128  0.90014  0.58825  1.0000
  H   H1105     1.0  0.84973  0.75658  0.01636  1.0000
  H   H1106     1.0  0.82168  0.78679  0.99740  1.0000
  O   O1265     1.0  0.83984  0.80125  0.99898  1.0000
  H   H1107     1.0  0.14889  0.45776  0.77100  1.0000
  H   H1108     1.0  0.12439  0.43544  0.78310  1.0000
  O   O1266     1.0  0.14342  0.40040  0.77630  1.0000
  H   H1109     1.0  0.49629  0.32895  0.67497  1.0000
  H   H1110     1.0  0.52473  0.26672  0.68845  1.0000
  O   O1267     1.0  0.51636  0.29155  0.66942  1.0000
  H   H1111     1.0  0.81879  0.24291  0.88449  1.0000
  H   H1112     1.0  0.83672  0.16042  0.86285  1.0000
  O   O1268     1.0  0.81867  0.21733  0.86536  1.0000
  H   H1113     1.0  0.40955  0.18387  0.83179  1.0000
  H   H1114     1.0  0.40682  0.16853  0.79875  1.0000
  O   O1269     1.0  0.40309  0.21911  0.81282  1.0000
  H   H1115     1.0  0.70246  0.07954  0.73614  1.0000
  H   H1116     1.0  0.70334  0.97963  0.71926  1.0000
  O   O1270     1.0  0.71229  0.03206  0.72170  1.0000
  H   H1117     1.0  0.66572  0.23718  0.81752  1.0000
  H   H1118     1.0  0.67238  0.33419  0.81479  1.0000
  O   O1271     1.0  0.68267  0.26199  0.81355  1.0000
  H   H1119     1.0  0.31561  0.61110  0.76641  1.0000
  H   H1120     1.0  0.31879  0.67413  0.73679  1.0000
  O   O1272     1.0  0.32845  0.62968  0.75300  1.0000
  H   H1121     1.0  0.20132  0.58596  0.52602  1.0000
  H   H1122     1.0  0.22065  0.63466  0.54167  1.0000
  O   O1273     1.0  0.21955  0.56693  0.53569  1.0000
  H   H1123     1.0  0.55014  0.53772  0.82325  1.0000
  H   H1124     1.0  0.53272  0.46148  0.82801  1.0000
  O   O1274     1.0  0.53450  0.52511  0.83219  1.0000
  H   H1125     1.0  0.74838  0.70108  0.70235  1.0000
  H   H1126     1.0  0.72870  0.75026  0.67526  1.0000
  O   O1275     1.0  0.73257  0.69774  0.69030  1.0000
  H   H1127     1.0  0.53406  0.46547  0.89428  1.0000
  H   H1128     1.0  0.54195  0.36807  0.87741  1.0000
  O   O1276     1.0  0.53580  0.39701  0.89529  1.0000
  H   H1129     1.0  0.36349  0.35840  0.92886  1.0000
  H   H1130     1.0  0.35548  0.26593  0.93188  1.0000
  O   O1277     1.0  0.36955  0.29414  0.93937  1.0000
  H   H1131     1.0  0.23897  0.86264  0.96386  1.0000
  H   H1132     1.0  0.24983  0.89983  0.93513  1.0000
  O   O1278     1.0  0.23170  0.90800  0.94704  1.0000
  H   H1133     1.0  0.12013  0.73878  0.07465  1.0000
  H   H1134     1.0  0.09544  0.83733  0.06948  1.0000
  O   O1279     1.0  0.10037  0.77066  0.07975  1.0000
  H   H1135     1.0  0.02934  0.53664  0.46157  1.0000
  H   H1136     1.0  0.00984  0.54625  0.48971  1.0000
  O   O1280     1.0  0.02000  0.57907  0.47863  1.0000
  H   H1137     1.0  0.79150  0.76334  0.01176  1.0000
  H   H1138     1.0  0.76562  0.78500  0.99372  1.0000
  O   O1281     1.0  0.78202  0.80158  0.99525  1.0000
  H   H1139     1.0  0.65779  0.06333  0.83005  1.0000
  H   H1140     1.0  0.65635  0.96543  0.84117  1.0000
  O   O1282     1.0  0.66074  0.02635  0.84706  1.0000
  H   H1141     1.0  0.72149  0.49272  0.50460  1.0000
  H   H1142     1.0  0.75150  0.47507  0.49590  1.0000
  O   O1283     1.0  0.73202  0.50093  0.48819  1.0000
  H   H1143     1.0  0.15599  0.34263  0.49252  1.0000
  H   H1144     1.0  0.12297  0.41200  0.48743  1.0000
  O   O1284     1.0  0.13587  0.34502  0.49036  1.0000
  H   H1145     1.0  0.22141  0.51884  0.78133  1.0000
  H   H1146     1.0  0.20498  0.62773  0.76831  1.0000
  O   O1285     1.0  0.21347  0.55541  0.76458  1.0000
  H   H1147     1.0  0.72034  0.33825  0.73379  1.0000
  H   H1148     1.0  0.71560  0.42040  0.70821  1.0000
  O   O1286     1.0  0.70790  0.37197  0.71732  1.0000
  H   H1149     1.0  0.49727  0.74151  0.57181  1.0000
  H   H1150     1.0  0.47482  0.76683  0.54781  1.0000
  O   O1287     1.0  0.49390  0.76675  0.55292  1.0000
  H   H1151     1.0  0.84016  0.67139  0.85494  1.0000
  H   H1152     1.0  0.83622  0.70475  0.88457  1.0000
  O   O1288     1.0  0.82581  0.68052  0.87022  1.0000
  H   H1153     1.0  0.21842  0.63860  0.87329  1.0000
  H   H1154     1.0  0.24047  0.68581  0.87189  1.0000
  O   O1289     1.0  0.23204  0.65438  0.88604  1.0000
  H   H1155     1.0  0.84219  0.76465  0.50152  1.0000
  H   H1156     1.0  0.81772  0.83046  0.52187  1.0000
  O   O1290     1.0  0.82200  0.80915  0.50178  1.0000
  H   H1157     1.0  0.37509  0.04892  0.99378  1.0000
  H   H1158     1.0  0.34364  0.09311  0.99981  1.0000
  O   O1291     1.0  0.35742  0.08201  0.98417  1.0000
  H   H1159     1.0  0.16894  0.79733  0.76699  1.0000
  H   H1160     1.0  0.17311  0.77357  0.79843  1.0000
  O   O1292     1.0  0.18293  0.76122  0.78090  1.0000
  H   H1161     1.0  0.98200  0.83238  0.86654  1.0000
  H   H1162     1.0  0.99744  0.71768  0.86168  1.0000
  O   O1293     1.0  0.98065  0.77734  0.85650  1.0000
  H   H1163     1.0  0.85467  0.26522  0.71597  1.0000
  H   H1164     1.0  0.85368  0.36710  0.73146  1.0000
  O   O1294     1.0  0.86198  0.29481  0.73213  1.0000
  H   H1165     1.0  0.39218  0.03800  0.43637  1.0000
  H   H1166     1.0  0.38890  0.05649  0.47076  1.0000
  O   O1295     1.0  0.40179  0.01402  0.45594  1.0000
  H   H1167     1.0  0.00225  0.40778  0.66819  1.0000
  H   H1168     1.0  0.02463  0.45475  0.66887  1.0000
  O   O1296     1.0  0.01657  0.41605  0.67918  1.0000
  H   H1169     1.0  0.69884  0.45095  0.91757  1.0000
  H   H1170     1.0  0.70140  0.36396  0.93916  1.0000
  O   O1297     1.0  0.68676  0.42757  0.93017  1.0000
  H   H1171     1.0  0.58694  0.19737  0.98991  1.0000
  H   H1172     1.0  0.57428  0.30355  0.97276  1.0000
  O   O1298     1.0  0.59284  0.24537  0.97783  1.0000
  H   H1173     1.0  0.52830  0.09892  0.77509  1.0000
  H   H1174     1.0  0.50550  0.09209  0.79183  1.0000
  O   O1299     1.0  0.52313  0.11399  0.79470  1.0000
  H   H1175     1.0  0.19162  0.21649  0.01681  1.0000
  H   H1176     1.0  0.21560  0.13524  0.03661  1.0000
  O   O1300     1.0  0.20054  0.19974  0.03519  1.0000
  H   H1177     1.0  0.31609  0.54123  0.80989  1.0000
  H   H1178     1.0  0.28782  0.62219  0.80034  1.0000
  O   O1301     1.0  0.29946  0.55177  0.79639  1.0000
  H   H1179     1.0  0.55718  0.51152  0.60427  1.0000
  H   H1180     1.0  0.53755  0.46193  0.62258  1.0000
  O   O1302     1.0  0.53809  0.51510  0.60863  1.0000
  H   H1181     1.0  0.97553  0.58794  0.86564  1.0000
  H   H1182     1.0  0.00039  0.57651  0.88851  1.0000
  O   O1303     1.0  0.98377  0.55609  0.88370  1.0000
  H   H1183     1.0  0.88261  0.15628  0.88076  1.0000
  H   H1184     1.0  0.87897  0.26491  0.89370  1.0000
  O   O1304     1.0  0.88384  0.19226  0.89868  1.0000
  H   H1185     1.0  0.31986  0.78457  0.67602  1.0000
  H   H1186     1.0  0.31513  0.87408  0.65346  1.0000
  O   O1305     1.0  0.32893  0.83165  0.66768  1.0000
  H   H1187     1.0  0.41278  0.70956  0.73726  1.0000
  H   H1188     1.0  0.40981  0.60698  0.74606  1.0000
  O   O1306     1.0  0.41095  0.67357  0.75325  1.0000
  H   H1189     1.0  0.22793  0.95132  0.02863  1.0000
  H   H1190     1.0  0.24425  0.00058  0.05020  1.0000
  O   O1307     1.0  0.24247  0.98605  0.02904  1.0000
  H   H1191     1.0  0.83974  0.83787  0.43220  1.0000
  H   H1192     1.0  0.83177  0.93821  0.45046  1.0000
  O   O1308     1.0  0.84601  0.89411  0.43663  1.0000
  H   H1193     1.0  0.40327  0.37563  0.66413  1.0000
  H   H1194     1.0  0.40455  0.26764  0.67486  1.0000
  O   O1309     1.0  0.41721  0.30637  0.66582  1.0000
  H   H1195     1.0  0.31352  0.43494  0.02908  1.0000
  H   H1196     1.0  0.30239  0.52055  0.05289  1.0000
  O   O1310     1.0  0.30018  0.50006  0.03287  1.0000
  H   H1197     1.0  0.87174  0.44635  0.81383  1.0000
  H   H1198     1.0  0.87168  0.41414  0.84738  1.0000
  O   O1311     1.0  0.86713  0.40068  0.82715  1.0000
  H   H1199     1.0  0.50158  0.85452  0.65901  1.0000
  H   H1200     1.0  0.49732  0.77321  0.63767  1.0000
  O   O1312     1.0  0.49260  0.80548  0.65673  1.0000
  H   H1201     1.0  0.94364  0.60179  0.90345  1.0000
  H   H1202     1.0  0.92497  0.60632  0.93176  1.0000
  O   O1313     1.0  0.92604  0.63258  0.91299  1.0000
  H   H1203     1.0  0.42053  0.47223  0.44885  1.0000
  H   H1204     1.0  0.44703  0.46162  0.46809  1.0000
  O   O1314     1.0  0.43732  0.42333  0.45728  1.0000
  H   H1205     1.0  0.64478  0.12893  0.59515  1.0000
  H   H1206     1.0  0.67207  0.05645  0.61026  1.0000
  O   O1315     1.0  0.66421  0.07683  0.59115  1.0000
  H   H1207     1.0  0.31869  0.66486  0.94660  1.0000
  H   H1208     1.0  0.31878  0.77050  0.94796  1.0000
  O   O1316     1.0  0.32415  0.71259  0.93464  1.0000
  H   H1209     1.0  0.36311  0.51030  0.64759  1.0000
  H   H1210     1.0  0.38653  0.54298  0.66055  1.0000
  O   O1317     1.0  0.37830  0.49132  0.66230  1.0000
  H   H1211     1.0  0.13930  0.85919  0.90285  1.0000
  H   H1212     1.0  0.16330  0.90548  0.90629  1.0000
  O   O1318     1.0  0.14277  0.91820  0.91149  1.0000
  H   H1213     1.0  0.57607  0.46294  0.52060  1.0000
  H   H1214     1.0  0.54653  0.57155  0.52120  1.0000
  O   O1319     1.0  0.55827  0.50131  0.53002  1.0000
  H   H1215     1.0  0.56736  0.09363  0.53868  1.0000
  H   H1216     1.0  0.58902  0.98824  0.52727  1.0000
  O   O1320     1.0  0.57384  0.01790  0.54171  1.0000
  H   H1217     1.0  0.31560  0.24615  0.91759  1.0000
  H   H1218     1.0  0.34258  0.14444  0.92402  1.0000
  O   O1321     1.0  0.33727  0.21556  0.91628  1.0000
  H   H1219     1.0  0.43432  0.99232  0.46702  1.0000
  H   H1220     1.0  0.45938  0.90539  0.47915  1.0000
  O   O1322     1.0  0.45410  0.97303  0.47298  1.0000
  H   H1221     1.0  0.45051  0.54282  0.54604  1.0000
  H   H1222     1.0  0.48146  0.54177  0.54658  1.0000
  O   O1323     1.0  0.46440  0.56253  0.53403  1.0000
  H   H1223     1.0  0.54465  0.24154  0.51552  1.0000
  H   H1224     1.0  0.54031  0.24013  0.54672  1.0000
  O   O1324     1.0  0.55683  0.22648  0.53290  1.0000
  H   H1225     1.0  0.76997  0.02222  0.89909  1.0000
  H   H1226     1.0  0.77146  0.13017  0.89304  1.0000
  O   O1325     1.0  0.78100  0.06720  0.90330  1.0000
  H   H1227     1.0  0.33310  0.52965  0.60924  1.0000
  H   H1228     1.0  0.36576  0.48776  0.60390  1.0000
  O   O1326     1.0  0.34967  0.55043  0.60860  1.0000
  H   H1229     1.0  0.66534  0.17385  0.42056  1.0000
  H   H1230     1.0  0.68362  0.22033  0.43774  1.0000
  O   O1327     1.0  0.66446  0.22282  0.43388  1.0000
  H   H1231     1.0  0.95101  0.57766  0.50102  1.0000
  H   H1232     1.0  0.93721  0.61653  0.47258  1.0000
  O   O1328     1.0  0.93704  0.56577  0.48717  1.0000
  H   H1233     1.0  0.26839  0.35618  0.93774  1.0000
  H   H1234     1.0  0.28234  0.38195  0.91167  1.0000
  O   O1329     1.0  0.28137  0.32266  0.92121  1.0000
  H   H1235     1.0  0.18436  0.36771  0.53663  1.0000
  H   H1236     1.0  0.16107  0.41807  0.55953  1.0000
  O   O1330     1.0  0.18152  0.37690  0.55837  1.0000
  H   H1237     1.0  0.29899  0.32654  0.59329  1.0000
  H   H1238     1.0  0.31369  0.35075  0.56533  1.0000
  O   O1331     1.0  0.31426  0.34793  0.58688  1.0000
  H   H1239     1.0  0.55920  0.88310  0.71188  1.0000
  H   H1240     1.0  0.54580  0.99756  0.71701  1.0000
  O   O1332     1.0  0.55177  0.95118  0.70154  1.0000
  H   H1241     1.0  0.36619  0.49343  0.69806  1.0000
  H   H1242     1.0  0.35523  0.51781  0.72795  1.0000
  O   O1333     1.0  0.37296  0.48152  0.71765  1.0000
  H   H1243     1.0  0.04400  0.87078  0.84775  1.0000
  H   H1244     1.0  0.07131  0.80454  0.83022  1.0000
  O   O1334     1.0  0.05155  0.80924  0.83640  1.0000
  H   H1245     1.0  0.94325  0.39853  0.82596  1.0000
  H   H1246     1.0  0.95288  0.30940  0.80430  1.0000
  O   O1335     1.0  0.95723  0.32952  0.82226  1.0000
  H   H1247     1.0  0.13209  0.06555  0.00149  1.0000
  H   H1248     1.0  0.14262  0.97698  0.02429  1.0000
  O   O1336     1.0  0.14614  0.99627  0.00417  1.0000
  H   H1249     1.0  0.01922  0.60536  0.77167  1.0000
  H   H1250     1.0  0.00907  0.70695  0.78516  1.0000
  O   O1337     1.0  0.00925  0.63918  0.78937  1.0000
  H   H1251     1.0  0.33849  0.01267  0.92106  1.0000
  H   H1252     1.0  0.34910  0.03924  0.95183  1.0000
  O   O1338     1.0  0.35369  0.03020  0.93193  1.0000
  H   H1253     1.0  0.32694  0.31032  0.67470  1.0000
  H   H1254     1.0  0.33516  0.40764  0.67328  1.0000
  O   O1339     1.0  0.34371  0.33222  0.67055  1.0000
  H   H1255     1.0  0.31158  0.09299  0.47123  1.0000
  H   H1256     1.0  0.32274  0.01902  0.44556  1.0000
  O   O1340     1.0  0.32202  0.02409  0.46538  1.0000
  H   H1257     1.0  0.26908  0.59349  0.44571  1.0000
  H   H1258     1.0  0.26226  0.69657  0.46402  1.0000
  O   O1341     1.0  0.27153  0.62030  0.46426  1.0000
  H   H1259     1.0  0.82925  0.34215  0.91402  1.0000
  H   H1260     1.0  0.83443  0.23369  0.92623  1.0000
  O   O1342     1.0  0.81929  0.29763  0.91969  1.0000
  H   H1261     1.0  0.44529  0.38736  0.73353  1.0000
  H   H1262     1.0  0.46738  0.27452  0.73660  1.0000
  O   O1343     1.0  0.46539  0.34474  0.73209  1.0000
  H   H1263     1.0  0.34868  0.90602  0.75279  1.0000
  H   H1264     1.0  0.35724  0.93873  0.72260  1.0000
  O   O1344     1.0  0.35870  0.94716  0.74306  1.0000
  H   H1265     1.0  0.72938  0.63604  0.93433  1.0000
  H   H1266     1.0  0.71157  0.69578  0.90540  1.0000
  O   O1345     1.0  0.72075  0.70329  0.92451  1.0000
  H   H1267     1.0  0.27690  0.79307  0.51622  1.0000
  H   H1268     1.0  0.30872  0.77339  0.52733  1.0000
  O   O1346     1.0  0.29507  0.73610  0.52435  1.0000
  H   H1269     1.0  0.50384  0.55579  0.43209  1.0000
  H   H1270     1.0  0.50400  0.49172  0.45771  1.0000
  O   O1347     1.0  0.51676  0.50499  0.44411  1.0000
  H   H1271     1.0  0.35016  0.83431  0.86295  1.0000
  H   H1272     1.0  0.34115  0.79532  0.88855  1.0000
  O   O1348     1.0  0.33281  0.84694  0.87426  1.0000
  H   H1273     1.0  0.09446  0.42620  0.68496  1.0000
  H   H1274     1.0  0.10581  0.49882  0.67786  1.0000
  O   O1349     1.0  0.09729  0.45608  0.66772  1.0000
  H   H1275     1.0  0.28771  0.03095  0.90533  1.0000
  H   H1276     1.0  0.31460  0.95427  0.89181  1.0000
  O   O1350     1.0  0.30757  0.97851  0.91138  1.0000
  H   H1277     1.0  0.14948  0.29658  0.99699  1.0000
  H   H1278     1.0  0.17367  0.20860  0.97598  1.0000
  O   O1351     1.0  0.17100  0.26113  0.99098  1.0000
  H   H1279     1.0  0.42373  0.77790  0.62181  1.0000
  H   H1280     1.0  0.41956  0.87261  0.63917  1.0000
  O   O1352     1.0  0.41492  0.85404  0.62080  1.0000
  H   H1281     1.0  0.01958  0.34813  0.95843  1.0000
  H   H1282     1.0  0.02066  0.43132  0.93582  1.0000
  O   O1353     1.0  0.00779  0.39872  0.94523  1.0000
  H   H1283     1.0  0.63588  0.56223  0.58600  1.0000
  H   H1284     1.0  0.60463  0.56292  0.59396  1.0000
  O   O1354     1.0  0.62046  0.58827  0.60128  1.0000
  H   H1285     1.0  0.75271  0.09231  0.80240  1.0000
  H   H1286     1.0  0.78406  0.08200  0.79239  1.0000
  O   O1355     1.0  0.76473  0.08913  0.78606  1.0000
  H   H1287     1.0  0.41246  0.07323  0.60339  1.0000
  H   H1288     1.0  0.38506  0.16559  0.60678  1.0000
  O   O1356     1.0  0.39274  0.09583  0.59952  1.0000
  H   H1289     1.0  0.00104  0.04552  0.98152  1.0000
  H   H1290     1.0  0.02106  0.94058  0.99847  1.0000
  O   O1357     1.0  0.00284  0.97666  0.98783  1.0000
  H   H1291     1.0  0.43706  0.01827  0.01014  1.0000
  H   H1292     1.0  0.41433  0.05844  0.03146  1.0000
  O   O1358     1.0  0.42106  0.00046  0.01784  1.0000
  H   H1293     1.0  0.58607  0.71325  0.87545  1.0000
  H   H1294     1.0  0.56580  0.63611  0.87134  1.0000
  O   O1359     1.0  0.58487  0.64695  0.86716  1.0000
  H   H1295     1.0  0.25157  0.50295  0.51747  1.0000
  H   H1296     1.0  0.26809  0.51877  0.49206  1.0000
  O   O1360     1.0  0.26479  0.46435  0.50383  1.0000
  H   H1297     1.0  0.25394  0.36076  0.59816  1.0000
  H   H1298     1.0  0.26429  0.26263  0.58637  1.0000
  O   O1361     1.0  0.26916  0.29963  0.60174  1.0000
  H   H1299     1.0  0.63044  0.42415  0.64463  1.0000
  H   H1300     1.0  0.63526  0.50154  0.62856  1.0000
  O   O1362     1.0  0.64627  0.44683  0.64195  1.0000
  O   O1363     1.0  0.14225  0.61509  0.85277  1.0000
  H   H1301     1.0  0.13145  0.65621  0.83781  1.0000
  H   H1302     1.0  0.13661  0.55521  0.85399  1.0000
  O   O1364     1.0  0.98480  0.28144  0.57360  1.0000
  H   H1303     1.0  0.97603  0.35066  0.56898  1.0000
  H   H1304     1.0  0.97662  0.24114  0.56119  1.0000
  O   O1365     1.0  0.87426  0.09401  0.61431  1.0000
  H   H1305     1.0  0.87477  0.16034  0.61237  1.0000
  H   H1306     1.0  0.89337  0.04860  0.61506  1.0000
  O   O1366     1.0  0.93914  0.33765  0.62875  1.0000
  H   H1307     1.0  0.94005  0.26892  0.62312  1.0000
  H   H1308     1.0  0.96025  0.33012  0.63187  1.0000
  O   O1367     1.0  0.94365  0.87491  0.81512  1.0000
  H   H1309     1.0  0.92506  0.87906  0.82433  1.0000
  H   H1310     1.0  0.95809  0.82857  0.82819  1.0000
  O   O1368     1.0  0.08826  0.32650  0.71124  1.0000
  H   H1311     1.0  0.07724  0.33571  0.72947  1.0000
  H   H1312     1.0  0.10751  0.28310  0.71601  1.0000
  O   O1369     1.0  0.07530  0.63237  0.72005  1.0000
  H   H1313     1.0  0.09133  0.62620  0.70764  1.0000
  H   H1314     1.0  0.05576  0.65224  0.71229  1.0000
  O   O1370     1.0  0.98553  0.34571  0.49664  1.0000
  H   H1315     1.0  0.00155  0.31876  0.51158  1.0000
  H   H1316     1.0  0.98692  0.41424  0.49542  1.0000
  O   O1371     1.0  0.87912  0.63871  0.71617  1.0000
  H   H1317     1.0  0.89612  0.57754  0.72307  1.0000
  H   H1318     1.0  0.86729  0.60402  0.70628  1.0000
  O   O1372     1.0  0.97892  0.70235  0.73052  1.0000
  H   H1319     1.0  0.98188  0.62898  0.73279  1.0000
  H   H1320     1.0  0.97204  0.74034  0.74778  1.0000
  O   O1373     1.0  0.07860  0.50788  0.76951  1.0000
  H   H1321     1.0  0.07213  0.54127  0.78593  1.0000
  H   H1322     1.0  0.07843  0.55855  0.75431  1.0000
  O   O1374     1.0  0.00162  0.86239  0.67905  1.0000
  H   H1323     1.0  0.98788  0.85145  0.66563  1.0000
  H   H1324     1.0  0.99101  0.89518  0.69577  1.0000
  O   O1375     1.0  0.03996  0.96445  0.67029  1.0000
  H   H1325     1.0  0.02864  0.92252  0.67524  1.0000
  H   H1326     1.0  0.03016  0.02835  0.67970  1.0000
  O   O1376     1.0  0.04184  0.55874  0.65823  1.0000
  H   H1327     1.0  0.06279  0.52257  0.65937  1.0000
  H   H1328     1.0  0.03437  0.59586  0.67495  1.0000
  O   O1377     1.0  0.29942  0.51929  0.61315  1.0000
  H   H1329     1.0  0.30680  0.45319  0.60405  1.0000
  H   H1330     1.0  0.29200  0.57006  0.59810  1.0000
  O   O1378     1.0  0.89165  0.85932  0.67286  1.0000
  H   H1331     1.0  0.88948  0.84927  0.65288  1.0000
  H   H1332     1.0  0.87677  0.84500  0.68301  1.0000
  O   O1379     1.0  0.06679  0.31494  0.84209  1.0000
  H   H1333     1.0  0.06844  0.28666  0.85944  1.0000
  H   H1334     1.0  0.04630  0.35417  0.83881  1.0000
  O   O1380     1.0  0.02957  0.27355  0.53343  1.0000
  H   H1335     1.0  0.01716  0.29003  0.55052  1.0000
  H   H1336     1.0  0.03578  0.19923  0.53353  1.0000
  O   O1381     1.0  0.96926  0.79436  0.64207  1.0000
  H   H1337     1.0  0.96191  0.75981  0.65674  1.0000
  H   H1338     1.0  0.95269  0.85583  0.63485  1.0000
  O   O1382     1.0  0.97819  0.51946  0.72804  1.0000
  H   H1339     1.0  0.98664  0.47032  0.74294  1.0000
  H   H1340     1.0  0.98825  0.48457  0.71158  1.0000
  O   O1383     1.0  0.12091  0.23716  0.64874  1.0000
  H   H1341     1.0  0.13147  0.17367  0.65839  1.0000
  H   H1342     1.0  0.11318  0.29439  0.66266  1.0000
  O   O1384     1.0  0.86248  0.78451  0.54817  1.0000
  H   H1343     1.0  0.86264  0.72117  0.55647  1.0000
  H   H1344     1.0  0.85808  0.83435  0.56479  1.0000
  O   O1385     1.0  0.97996  0.35227  0.89914  1.0000
  H   H1345     1.0  0.98388  0.36893  0.91946  1.0000
  H   H1346     1.0  0.98055  0.41164  0.88846  1.0000
  O   O1386     1.0  0.99868  0.46454  0.56838  1.0000
  H   H1347     1.0  0.98897  0.53253  0.57461  1.0000
  H   H1348     1.0  0.01758  0.45293  0.57764  1.0000
  O   O1387     1.0  0.10600  0.05786  0.72515  1.0000
  H   H1349     1.0  0.09161  0.12270  0.71995  1.0000
  H   H1350     1.0  0.09632  0.00744  0.72330  1.0000
  O   O1388     1.0  0.08148  0.91333  0.71517  1.0000
  H   H1351     1.0  0.07042  0.90211  0.73206  1.0000
  H   H1352     1.0  0.06583  0.94456  0.70204  1.0000
  O   O1389     1.0  0.02122  0.16932  0.61019  1.0000
  H   H1353     1.0  0.00684  0.21270  0.59682  1.0000
  H   H1354     1.0  0.03895  0.17998  0.60600  1.0000
  O   O1390     1.0  0.97754  0.73133  0.53554  1.0000
  H   H1355     1.0  0.98768  0.76630  0.54627  1.0000
  H   H1356     1.0  0.95991  0.74593  0.54570  1.0000
  O   O1391     1.0  0.94360  0.19096  0.84585  1.0000
  H   H1357     1.0  0.92537  0.19583  0.83469  1.0000
  H   H1358     1.0  0.94493  0.25473  0.83894  1.0000
  O   O1392     1.0  0.99618  0.02614  0.76765  1.0000
  H   H1359     1.0  0.98507  0.01573  0.78410  1.0000
  H   H1360     1.0  0.99066  0.09645  0.76465  1.0000
  O   O1393     1.0  0.02493  0.71560  0.62644  1.0000
  H   H1361     1.0  0.03354  0.64997  0.63817  1.0000
  H   H1362     1.0  0.00340  0.74370  0.63213  1.0000
  O   O1394     1.0  0.99418  0.28754  0.64749  1.0000
  H   H1363     1.0  0.00769  0.25461  0.63290  1.0000
  H   H1364     1.0  0.99973  0.23092  0.66052  1.0000
  O   O1395     1.0  0.07236  0.22446  0.62348  1.0000
  H   H1365     1.0  0.09265  0.21890  0.62397  1.0000
  H   H1366     1.0  0.06749  0.22210  0.64257  1.0000
  O   O1396     1.0  0.00716  0.38047  0.76463  1.0000
  H   H1367     1.0  0.02741  0.36870  0.76003  1.0000
  H   H1368     1.0  0.00604  0.39673  0.78537  1.0000
  O   O1397     1.0  0.02339  0.15382  0.88577  1.0000
  H   H1369     1.0  0.01165  0.22239  0.88397  1.0000
  H   H1370     1.0  0.02250  0.13523  0.90410  1.0000
  O   O1398     1.0  0.82292  0.02306  0.79062  1.0000
  H   H1371     1.0  0.82774  0.08230  0.78908  1.0000
  H   H1372     1.0  0.82611  0.99691  0.81020  1.0000
  O   O1399     1.0  0.01813  0.14378  0.69698  1.0000
  H   H1373     1.0  0.00657  0.16424  0.71361  1.0000
  H   H1374     1.0  0.02945  0.18658  0.69469  1.0000
  O   O1400     1.0  0.97481  0.13352  0.53603  1.0000
  H   H1375     1.0  0.97697  0.12953  0.51613  1.0000
  H   H1376     1.0  0.99081  0.07600  0.54662  1.0000
  O   O1401     1.0  0.88060  0.49454  0.77537  1.0000
  H   H1377     1.0  0.87352  0.51792  0.75775  1.0000
  H   H1378     1.0  0.89301  0.53623  0.77934  1.0000
  O   O1402     1.0  0.92616  0.30045  0.77743  1.0000
  H   H1379     1.0  0.92062  0.24618  0.77114  1.0000
  H   H1380     1.0  0.90853  0.36119  0.77689  1.0000
  O   O1403     1.0  0.79109  0.21037  0.68609  1.0000
  H   H1381     1.0  0.78767  0.14932  0.68462  1.0000
  H   H1382     1.0  0.79104  0.22385  0.70758  1.0000
  O   O1404     1.0  0.15401  0.32510  0.62157  1.0000
  H   H1383     1.0  0.14548  0.27947  0.63144  1.0000
  H   H1384     1.0  0.17329  0.30678  0.62873  1.0000
  O   O1405     1.0  0.05717  0.23734  0.68076  1.0000
  H   H1385     1.0  0.04132  0.30894  0.68012  1.0000
  H   H1386     1.0  0.07380  0.25779  0.68694  1.0000
  O   O1406     1.0  0.20750  0.33786  0.64338  1.0000
  H   H1387     1.0  0.22348  0.35901  0.65154  1.0000
  H   H1388     1.0  0.19874  0.32421  0.66068  1.0000
  O   O1407     1.0  0.79264  0.26746  0.73896  1.0000
  H   H1389     1.0  0.77559  0.27179  0.75099  1.0000
  H   H1390     1.0  0.80754  0.24136  0.75301  1.0000
  O   O1408     1.0  0.01420  0.81615  0.78581  1.0000
  H   H1391     1.0  0.02619  0.82914  0.77250  1.0000
  H   H1392     1.0  0.02494  0.82198  0.80184  1.0000
  O   O1409     1.0  0.92265  0.47690  0.73136  1.0000
  H   H1393     1.0  0.92846  0.42646  0.71546  1.0000
  H   H1394     1.0  0.93882  0.49655  0.73468  1.0000
  O   O1410     1.0  0.88987  0.97152  0.74727  1.0000
  H   H1395     1.0  0.87549  0.93790  0.75176  1.0000
  H   H1396     1.0  0.88804  0.98667  0.72658  1.0000
  O   O1411     1.0  0.13319  0.17297  0.57841  1.0000
  H   H1397     1.0  0.13946  0.11131  0.56895  1.0000
  H   H1398     1.0  0.12939  0.22092  0.56262  1.0000
  O   O1412     1.0  0.93053  0.98225  0.61701  1.0000
  H   H1399     1.0  0.93996  0.03347  0.61884  1.0000
  H   H1400     1.0  0.92891  0.96581  0.59704  1.0000
  O   O1413     1.0  0.96722  0.83457  0.48579  1.0000
  H   H1401     1.0  0.95540  0.90040  0.47820  1.0000
  H   H1402     1.0  0.96694  0.82574  0.50630  1.0000
  O   O1414     1.0  0.01616  0.79368  0.56777  1.0000
  H   H1403     1.0  0.03540  0.78555  0.56037  1.0000
  H   H1404     1.0  0.01862  0.75564  0.58705  1.0000
  O   O1415     1.0  0.84593  0.91259  0.58967  1.0000
  H   H1405     1.0  0.83342  0.91241  0.60528  1.0000
  H   H1406     1.0  0.84080  0.98783  0.58527  1.0000
  O   O1416     1.0  0.83605  0.94083  0.84357  1.0000
  H   H1407     1.0  0.83479  0.97609  0.86230  1.0000
  H   H1408     1.0  0.82258  0.90247  0.84646  1.0000
  O   O1417     1.0  0.86693  0.47955  0.68570  1.0000
  H   H1409     1.0  0.88450  0.42990  0.68164  1.0000
  H   H1410     1.0  0.85258  0.47050  0.67187  1.0000
  O   O1418     1.0  0.14890  0.04124  0.67570  1.0000
  H   H1411     1.0  0.13751  0.06995  0.69134  1.0000
  H   H1412     1.0  0.13688  0.01266  0.66596  1.0000
  O   O1419     1.0  0.89924  0.59233  0.66034  1.0000
  H   H1413     1.0  0.88685  0.55432  0.66458  1.0000
  H   H1414     1.0  0.90227  0.61798  0.67831  1.0000
  O   O1420     1.0  0.05264  0.97373  0.60948  1.0000
  H   H1415     1.0  0.04788  0.99425  0.62853  1.0000
  H   H1416     1.0  0.06254  0.90100  0.61399  1.0000
  O   O1421     1.0  0.02572  0.68490  0.70136  1.0000
  H   H1417     1.0  0.00986  0.68796  0.71545  1.0000
  H   H1418     1.0  0.01877  0.75418  0.69330  1.0000
  O   O1422     1.0  0.95186  0.12717  0.61516  1.0000
  H   H1419     1.0  0.97169  0.10667  0.60997  1.0000
  H   H1420     1.0  0.93995  0.13018  0.59754  1.0000
  O   O1423     1.0  0.06563  0.59835  0.51597  1.0000
  H   H1421     1.0  0.04876  0.59494  0.50420  1.0000
  H   H1422     1.0  0.07105  0.53799  0.52798  1.0000
  O   O1424     1.0  0.96171  0.62816  0.60082  1.0000
  H   H1423     1.0  0.96011  0.60137  0.62110  1.0000
  H   H1424     1.0  0.96833  0.68396  0.60400  1.0000
  O   O1425     1.0  0.91444  0.36287  0.57612  1.0000
  H   H1425     1.0  0.92508  0.36802  0.59432  1.0000
  H   H1426     1.0  0.92110  0.39465  0.56064  1.0000
  O   O1426     1.0  0.84886  0.64438  0.57686  1.0000
  H   H1427     1.0  0.82965  0.67754  0.58325  1.0000
  H   H1428     1.0  0.86218  0.62556  0.59333  1.0000
  O   O1427     1.0  0.10780  0.99202  0.65039  1.0000
  H   H1429     1.0  0.10956  0.99347  0.62925  1.0000
  H   H1430     1.0  0.10778  0.92803  0.65512  1.0000
  O   O1428     1.0  0.92297  0.36145  0.68454  1.0000
  H   H1431     1.0  0.92971  0.33576  0.66494  1.0000
  H   H1432     1.0  0.92674  0.29305  0.69176  1.0000
  O   O1429     1.0  0.87318  0.66323  0.49194  1.0000
  H   H1433     1.0  0.89379  0.64201  0.49606  1.0000
  H   H1434     1.0  0.87307  0.61040  0.47668  1.0000
  O   O1430     1.0  0.97373  0.96370  0.72340  1.0000
  H   H1435     1.0  0.96509  0.91909  0.73515  1.0000
  H   H1436     1.0  0.98158  0.99331  0.73981  1.0000
  O   O1431     1.0  0.05095  0.89911  0.75883  1.0000
  H   H1437     1.0  0.03153  0.95683  0.76152  1.0000
  H   H1438     1.0  0.06110  0.89853  0.77658  1.0000
  O   O1432     1.0  0.12650  0.59262  0.68793  1.0000
  H   H1439     1.0  0.11559  0.66409  0.68422  1.0000
  H   H1440     1.0  0.13406  0.58512  0.70691  1.0000
  O   O1433     1.0  0.05848  0.43001  0.90994  1.0000
  H   H1441     1.0  0.07270  0.42122  0.92526  1.0000
  H   H1442     1.0  0.05968  0.36426  0.90099  1.0000
  O   O1434     1.0  0.04284  0.63384  0.83758  1.0000
  H   H1443     1.0  0.04689  0.70155  0.83937  1.0000
  H   H1444     1.0  0.02855  0.64078  0.82280  1.0000
  O   O1435     1.0  0.91528  0.52082  0.83255  1.0000
  H   H1445     1.0  0.91818  0.51387  0.85418  1.0000
  H   H1446     1.0  0.91869  0.58286  0.82723  1.0000
  O   O1436     1.0  0.97854  0.22832  0.75101  1.0000
  H   H1447     1.0  0.98737  0.27761  0.75611  1.0000
  H   H1448     1.0  0.95791  0.27521  0.75364  1.0000
