data_image0
_chemical_formula_structural       Ti2O3Ti2O4Ti2O4Ti2O4Ti2O4Ti2O4Ti2O4Ti2O4Ti2O4Ti2O4Ti2O4Ti2O4Ti2O4Ti2O4Ti2O4Ti2O4Ti2O4Ti2O4Ti2O4Ti2O4Ti2O4Ti2O4Ti2O4Ti2O4Ti2O4Ti2O4Ti2O4Ti2O4Ti2O3Ti2O6H2OH2OH2OH2OH2OH2OH2OH2OH2OH2OH2OH2OH2OH2OTi2O3Ti2O4Ti2O4Ti2O4Ti2O4Ti2O4Ti2O4Ti2O4Ti2O4Ti2O4Ti2O4Ti2O4Ti2O4Ti2O4Ti2O4Ti2O4Ti2O4Ti2O4Ti2O4Ti2O4Ti2O4Ti2O4Ti2O4Ti2O4Ti2O4Ti2O4Ti2O4Ti2O4Ti2O3Ti2O6H2OH2OH2OH2OH2OH2OH2OH2OH2OH2OH2OH2OH2OH2OH2OH2OH2OH2OH2OH2OH2OH2OH2OH2OH2OH2OH2OH2OH2OH2OH2OH2OH2OH2OH2OH2OH2OH2OH2OH2OH2OH2OH2OH2OH2OH2OH2OH2OH2OH2OH2OH2OH2OH2OH2OH2OH2OH2OH2OH2OH2OH2OH2OH2OH2OH2OH2OH2OH2OH2OH2OH2OH2OH2OH2OH2OH2OH2OH2OH2OH2OH2OH2OH2OH2OH2OH2OH2OH2OH2OH2OH2OH2OH2OH2OH2OH2OH2OH2OH2OH2OH2OH2OH2OH2OH2OH2OH2OH2OH2OH2OH2OH2OH2OH2OH2OH2OH2OH2OH2OH2OH2OH2OH2OH2OH2OH2OH2OH2OH2OH2OH2OH2OH2OH2OH2OH2OH2OH2OH2OH2OH2OH2OH2OH2OH2OH2OH2OH2OH2OH2OH2OH2OH2OH2OH2OH2OH2OH2OH2OH2OH2OH2OH2OH2OH2OH2OH2OH2OH2OH2OH2OH2OH2OH2OH2OH2OH2OH2OH2OH2OH2OH2OH2OH2O2H2OH2OH2OH2OH2OH2OH2OH2OH2OH2OH2OH2OH2OH2OH2OH2OH2OH2OH2OH2OH2OH2OH2OH2OH2OH2OH2
_chemical_formula_sum              "Ti120 O466 H452"
_cell_length_a       15.4915
_cell_length_b       14.2755
_cell_length_c       48.1944
_cell_angle_alpha    90
_cell_angle_beta     90
_cell_angle_gamma    78.1622

_space_group_name_H-M_alt    "P 1"
_space_group_IT_number       1

loop_
  _space_group_symop_operation_xyz
  'x, y, z'

loop_
  _atom_site_type_symbol
  _atom_site_label
  _atom_site_symmetry_multiplicity
  _atom_site_fract_x
  _atom_site_fract_y
  _atom_site_fract_z
  _atom_site_occupancy
  Ti  Ti1       1.0  0.91833  0.24138  0.06588  1.0000
  Ti  Ti2       1.0  0.92666  0.00993  0.06558  1.0000
  O   O1        1.0  0.87310  0.38607  0.06501  1.0000
  O   O2        1.0  0.79940  0.07238  0.06836  1.0000
  O   O3        1.0  0.45753  0.14337  0.06868  1.0000
  Ti  Ti3       1.0  0.73871  0.20053  0.06983  1.0000
  Ti  Ti4       1.0  0.74600  0.45353  0.08145  1.0000
  O   O4        1.0  0.69671  0.34068  0.08074  1.0000
  O   O5        1.0  0.62424  0.02163  0.08128  1.0000
  O   O6        1.0  0.28826  0.09047  0.08140  1.0000
  O   O7        1.0  0.02119  0.26490  0.08569  1.0000
  Ti  Ti5       1.0  0.56317  0.15030  0.08416  1.0000
  Ti  Ti6       1.0  0.57418  0.40418  0.09024  1.0000
  O   O8        1.0  0.51375  0.30394  0.08896  1.0000
  O   O9        1.0  0.45249  0.47519  0.09732  1.0000
  O   O10       1.0  0.12014  0.03905  0.09317  1.0000
  O   O11       1.0  0.85006  0.21250  0.09585  1.0000
  Ti  Ti7       1.0  0.39161  0.11881  0.09770  1.0000
  Ti  Ti8       1.0  0.40538  0.35922  0.10276  1.0000
  O   O12       1.0  0.35316  0.24678  0.10644  1.0000
  O   O13       1.0  0.27432  0.43050  0.10928  1.0000
  O   O14       1.0  0.94872  0.50414  0.10297  1.0000
  O   O15       1.0  0.67690  0.17016  0.10551  1.0000
  Ti  Ti9       1.0  0.23139  0.05807  0.11240  1.0000
  Ti  Ti10      1.0  0.22215  0.31302  0.11801  1.0000
  O   O16       1.0  0.17346  0.20096  0.11823  1.0000
  O   O17       1.0  0.10395  0.37584  0.11876  1.0000
  O   O18       1.0  0.77698  0.46026  0.11624  1.0000
  O   O19       1.0  0.50487  0.13635  0.11986  1.0000
  Ti  Ti11      1.0  0.05519  0.00907  0.12737  1.0000
  Ti  Ti12      1.0  0.04537  0.26385  0.12064  1.0000
  O   O20       1.0  0.99577  0.14788  0.13029  1.0000
  O   O21       1.0  0.93020  0.33156  0.13098  1.0000
  O   O22       1.0  0.59512  0.41308  0.13066  1.0000
  O   O23       1.0  0.33511  0.07326  0.13402  1.0000
  Ti  Ti13      1.0  0.88861  0.47192  0.13835  1.0000
  Ti  Ti14      1.0  0.87159  0.21782  0.13694  1.0000
  O   O24       1.0  0.83104  0.10440  0.14178  1.0000
  O   O25       1.0  0.75633  0.28489  0.14146  1.0000
  O   O26       1.0  0.42468  0.36523  0.14099  1.0000
  O   O27       1.0  0.15872  0.03485  0.14356  1.0000
  Ti  Ti15      1.0  0.70681  0.42945  0.15312  1.0000
  Ti  Ti16      1.0  0.69730  0.17973  0.14162  1.0000
  O   O28       1.0  0.65197  0.05754  0.15417  1.0000
  O   O29       1.0  0.58932  0.24234  0.15375  1.0000
  O   O30       1.0  0.24789  0.31830  0.15535  1.0000
  O   O31       1.0  0.98282  0.49016  0.15851  1.0000
  Ti  Ti17      1.0  0.52952  0.39673  0.16372  1.0000
  Ti  Ti18      1.0  0.52752  0.12900  0.15908  1.0000
  O   O32       1.0  0.48683  0.01967  0.16822  1.0000
  O   O33       1.0  0.40727  0.19693  0.16991  1.0000
  O   O34       1.0  0.07893  0.27420  0.16672  1.0000
  O   O35       1.0  0.82439  0.43134  0.16966  1.0000
  Ti  Ti19      1.0  0.36223  0.33191  0.17503  1.0000
  Ti  Ti20      1.0  0.36516  0.08024  0.17461  1.0000
  O   O36       1.0  0.30450  0.47392  0.17663  1.0000
  O   O37       1.0  0.23737  0.14829  0.18011  1.0000
  O   O38       1.0  0.90016  0.22959  0.17767  1.0000
  O   O39       1.0  0.63819  0.39534  0.18076  1.0000
  Ti  Ti21      1.0  0.18116  0.28719  0.18591  1.0000
  Ti  Ti22      1.0  0.18429  0.03830  0.18257  1.0000
  O   O40       1.0  0.13367  0.42508  0.19005  1.0000
  O   O41       1.0  0.05659  0.10385  0.19305  1.0000
  O   O42       1.0  0.73800  0.16851  0.18900  1.0000
  O   O43       1.0  0.47002  0.35284  0.19367  1.0000
  Ti  Ti23      1.0  0.01054  0.24494  0.19777  1.0000
  Ti  Ti24      1.0  0.01106  0.49588  0.20038  1.0000
  O   O44       1.0  0.95552  0.37642  0.20258  1.0000
  O   O45       1.0  0.88676  0.04978  0.20578  1.0000
  O   O46       1.0  0.56323  0.12923  0.20367  1.0000
  O   O47       1.0  0.29998  0.29336  0.20649  1.0000
  Ti  Ti25      1.0  0.83881  0.18896  0.20666  1.0000
  Ti  Ti26      1.0  0.83978  0.44338  0.21035  1.0000
  O   O48       1.0  0.78948  0.32303  0.21587  1.0000
  O   O49       1.0  0.71528  0.50594  0.21605  1.0000
  O   O50       1.0  0.38440  0.08236  0.21398  1.0000
  O   O51       1.0  0.11293  0.25831  0.21957  1.0000
  Ti  Ti27      1.0  0.66584  0.14459  0.21882  1.0000
  Ti  Ti28      1.0  0.67552  0.38498  0.22282  1.0000
  O   O52       1.0  0.61611  0.28403  0.22580  1.0000
  O   O53       1.0  0.55145  0.45551  0.23109  1.0000
  O   O54       1.0  0.20881  0.02924  0.22648  1.0000
  O   O55       1.0  0.95169  0.19350  0.22915  1.0000
  Ti  Ti29      1.0  0.49299  0.09522  0.23651  1.0000
  Ti  Ti30      1.0  0.48920  0.34867  0.23686  1.0000
  O   O56       1.0  0.44015  0.24072  0.24094  1.0000
  O   O57       1.0  0.37155  0.41223  0.24182  1.0000
  O   O58       1.0  0.04532  0.48222  0.23855  1.0000
  O   O59       1.0  0.76977  0.16665  0.24160  1.0000
  Ti  Ti31      1.0  0.30917  0.05645  0.24532  1.0000
  Ti  Ti32      1.0  0.31746  0.30117  0.24784  1.0000
  O   O60       1.0  0.26253  0.18724  0.25081  1.0000
  O   O61       1.0  0.19417  0.36217  0.25380  1.0000
  O   O62       1.0  0.86619  0.43950  0.24934  1.0000
  O   O63       1.0  0.59545  0.12497  0.25455  1.0000
  Ti  Ti33      1.0  0.15462  0.50156  0.26109  1.0000
  Ti  Ti34      1.0  0.14063  0.25256  0.26153  1.0000
  O   O64       1.0  0.08478  0.14470  0.26260  1.0000
  O   O65       1.0  0.01746  0.32096  0.26602  1.0000
  O   O66       1.0  0.69641  0.39073  0.26244  1.0000
  O   O67       1.0  0.41900  0.07723  0.26782  1.0000
  Ti  Ti35      1.0  0.97253  0.46528  0.26849  1.0000
  Ti  Ti36      1.0  0.96801  0.20778  0.26723  1.0000
  O   O68       1.0  0.90843  0.09591  0.27713  1.0000
  O   O69       1.0  0.84504  0.28144  0.27865  1.0000
  O   O70       1.0  0.52261  0.35313  0.27661  1.0000
  O   O71       1.0  0.24545  0.03670  0.27972  1.0000
  Ti  Ti37      1.0  0.80314  0.40560  0.28593  1.0000
  Ti  Ti38      1.0  0.78868  0.16444  0.27846  1.0000
  O   O72       1.0  0.74392  0.05517  0.28716  1.0000
  O   O73       1.0  0.67488  0.23134  0.29281  1.0000
  O   O74       1.0  0.34662  0.29922  0.28975  1.0000
  O   O75       1.0  0.07816  0.48372  0.28939  1.0000
  Ti  Ti39      1.0  0.63835  0.36655  0.29711  1.0000
  Ti  Ti40      1.0  0.62459  0.11403  0.29191  1.0000
  O   O76       1.0  0.56776  0.50419  0.29939  1.0000
  O   O77       1.0  0.50306  0.18665  0.30104  1.0000
  O   O78       1.0  0.17224  0.25015  0.30013  1.0000
  O   O79       1.0  0.91119  0.42599  0.30302  1.0000
  Ti  Ti41      1.0  0.46056  0.32036  0.30500  1.0000
  Ti  Ti42      1.0  0.44989  0.06622  0.30621  1.0000
  O   O80       1.0  0.39377  0.45613  0.31399  1.0000
  O   O81       1.0  0.33197  0.13166  0.31784  1.0000
  O   O82       1.0  0.99811  0.19903  0.31338  1.0000
  O   O83       1.0  0.72865  0.38646  0.31698  1.0000
  Ti  Ti43      1.0  0.28140  0.27588  0.31922  1.0000
  Ti  Ti44      1.0  0.28055  0.02659  0.32273  1.0000
  O   O84       1.0  0.22809  0.40545  0.32578  1.0000
  O   O85       1.0  0.16252  0.08928  0.33253  1.0000
  O   O86       1.0  0.81428  0.16876  0.32668  1.0000
  O   O87       1.0  0.55516  0.34596  0.32729  1.0000
  Ti  Ti45      1.0  0.10546  0.21691  0.33009  1.0000
  Ti  Ti46      1.0  0.10998  0.47388  0.33235  1.0000
  O   O88       1.0  0.05623  0.36330  0.33656  1.0000
  O   O89       1.0  0.98025  0.04382  0.34570  1.0000
  O   O90       1.0  0.64591  0.11498  0.33601  1.0000
  O   O91       1.0  0.38686  0.29507  0.33882  1.0000
  Ti  Ti47      1.0  0.91760  0.18879  0.34402  1.0000
  Ti  Ti48      1.0  0.94085  0.42362  0.34321  1.0000
  O   O92       1.0  0.87260  0.31969  0.34898  1.0000
  O   O93       1.0  0.81307  0.49995  0.35297  1.0000
  O   O94       1.0  0.47932  0.06551  0.34869  1.0000
  O   O95       1.0  0.20578  0.24715  0.35475  1.0000
  Ti  Ti49      1.0  0.74566  0.13910  0.35522  1.0000
  Ti  Ti50      1.0  0.75265  0.39442  0.36010  1.0000
  O   O96       1.0  0.70001  0.27386  0.36253  1.0000
  O   O97       1.0  0.62992  0.44714  0.36337  1.0000
  O   O98       1.0  0.30916  0.01741  0.36294  1.0000
  O   O99       1.0  0.03194  0.19841  0.36627  1.0000
  Ti  Ti51      1.0  0.57281  0.09376  0.36795  1.0000
  Ti  Ti52      1.0  0.58095  0.33149  0.36613  1.0000
  O   O100      1.0  0.52371  0.22583  0.37421  1.0000
  O   O101      1.0  0.45919  0.39822  0.37827  1.0000
  O   O102      1.0  0.12587  0.48190  0.37181  1.0000
  O   O103      1.0  0.85472  0.16103  0.37806  1.0000
  Ti  Ti53      1.0  0.40751  0.03879  0.38349  1.0000
  Ti  Ti54      1.0  0.39579  0.29115  0.37966  1.0000
  O   O104      1.0  0.35580  0.17608  0.38438  1.0000
  O   O105      1.0  0.28191  0.35924  0.38688  1.0000
  O   O106      1.0  0.95688  0.42347  0.38856  1.0000
  O   O107      1.0  0.69950  0.09288  0.38825  1.0000
  Ti  Ti55      1.0  0.24519  0.49263  0.39802  1.0000
  Ti  Ti56      1.0  0.22667  0.24596  0.39234  1.0000
  O   O108      1.0  0.18342  0.13076  0.40050  1.0000
  O   O109      1.0  0.10803  0.30425  0.40743  1.0000
  O   O110      1.0  0.78319  0.38668  0.39926  1.0000
  O   O111      1.0  0.51263  0.07056  0.40024  1.0000
  Ti  Ti57      1.0  0.07244  0.44545  0.40549  1.0000
  Ti  Ti58      1.0  0.06254  0.18578  0.40275  1.0000
  O   O112      1.0  0.00677  0.08140  0.41506  1.0000
  O   O113      1.0  0.95060  0.25633  0.41825  1.0000
  O   O114      1.0  0.34175  0.51229  0.41413  1.0000
  Ti  Ti59      1.0  0.89480  0.39449  0.41555  1.0000
  Ti  Ti60      1.0  0.88548  0.13832  0.41629  1.0000
  O   O115      1.0  0.84652  0.02929  0.42556  1.0000
  O   O116      1.0  0.16316  0.46228  0.42605  1.0000
  O   O117      1.0  0.99169  0.42310  0.43998  1.0000
  O   O118      1.0  0.80786  0.24119  0.04317  1.0000
  O   O119      1.0  0.63290  0.19129  0.05549  1.0000
  O   O120      1.0  0.97001  0.11545  0.05374  1.0000
  H   H1        1.0  0.05425  0.37073  0.06768  1.0000
  H   H2        1.0  0.09690  0.46117  0.06833  1.0000
  O   O121      1.0  0.05466  0.43507  0.05702  1.0000
  H   H3        1.0  0.72091  0.03082  0.39639  1.0000
  H   H4        1.0  0.70952  0.21713  0.41333  1.0000
  O   O122      1.0  0.75952  0.23259  0.42414  1.0000
  H   H5        1.0  0.46775  0.70530  0.85294  1.0000
  H   H6        1.0  0.76091  0.29557  0.41517  1.0000
  O   O123      1.0  0.59665  0.31068  0.41256  1.0000
  H   H7        1.0  0.68987  0.09519  0.62409  1.0000
  H   H8        1.0  0.63226  0.11236  0.65157  1.0000
  O   O124      1.0  0.65752  0.06193  0.63881  1.0000
  H   H9        1.0  0.58592  0.05656  0.79936  1.0000
  H   H10       1.0  0.56117  0.96147  0.81491  1.0000
  O   O125      1.0  0.57598  0.02962  0.81773  1.0000
  H   H11       1.0  0.98950  0.06677  0.86092  1.0000
  H   H12       1.0  0.86029  0.96154  0.93033  1.0000
  O   O126      1.0  0.97337  0.11558  0.84618  1.0000
  H   H13       1.0  0.39897  0.27485  0.75329  1.0000
  H   H14       1.0  0.35688  0.25532  0.72693  1.0000
  O   O127      1.0  0.33881  0.28683  0.74488  1.0000
  H   H15       1.0  0.04890  0.40867  0.89830  1.0000
  H   H16       1.0  0.05530  0.32577  0.92217  1.0000
  O   O128      1.0  0.02091  0.35981  0.90639  1.0000
  H   H17       1.0  0.18218  0.75608  0.96931  1.0000
  H   H18       1.0  0.21944  0.73547  0.93835  1.0000
  O   O129      1.0  0.23451  0.75641  0.95668  1.0000
  H   H19       1.0  0.77029  0.41127  0.52485  1.0000
  H   H20       1.0  0.80923  0.32840  0.54383  1.0000
  O   O130      1.0  0.75111  0.36779  0.53770  1.0000
  H   H21       1.0  0.52640  0.61931  0.53445  1.0000
  H   H22       1.0  0.60049  0.55109  0.55017  1.0000
  O   O131      1.0  0.59066  0.58971  0.53191  1.0000
  H   H23       1.0  0.75414  0.71039  0.85244  1.0000
  H   H24       1.0  0.34899  0.99719  0.95389  1.0000
  O   O132      1.0  0.35691  0.05465  0.96423  1.0000
  H   H25       1.0  0.96024  0.34579  0.01598  1.0000
  H   H26       1.0  0.99489  0.23880  0.01041  1.0000
  O   O133      1.0  0.98279  0.28550  0.02563  1.0000
  H   H27       1.0  0.22631  0.46867  0.71880  1.0000
  H   H28       1.0  0.26511  0.38484  0.74031  1.0000
  O   O134      1.0  0.21582  0.43840  0.73610  1.0000
  Ti  Ti61      1.0  0.90872  0.74236  0.06497  1.0000
  Ti  Ti62      1.0  0.91489  0.51092  0.06508  1.0000
  O   O135      1.0  0.86288  0.89050  0.06472  1.0000
  O   O136      1.0  0.79434  0.56602  0.06894  1.0000
  O   O137      1.0  0.46774  0.64462  0.06715  1.0000
  Ti  Ti63      1.0  0.73944  0.70468  0.07204  1.0000
  Ti  Ti64      1.0  0.75326  0.95155  0.07770  1.0000
  O   O138      1.0  0.69386  0.84841  0.07982  1.0000
  O   O139      1.0  0.62606  0.51739  0.08345  1.0000
  O   O140      1.0  0.29506  0.59527  0.07914  1.0000
  O   O141      1.0  0.02169  0.76792  0.08157  1.0000
  Ti  Ti65      1.0  0.56732  0.66202  0.08472  1.0000
  Ti  Ti66      1.0  0.56604  0.91349  0.09156  1.0000
  O   O142      1.0  0.52232  0.80357  0.09209  1.0000
  O   O143      1.0  0.44827  0.97702  0.09295  1.0000
  O   O144      1.0  0.12260  0.54549  0.09557  1.0000
  O   O145      1.0  0.84594  0.72796  0.09557  1.0000
  Ti  Ti67      1.0  0.40017  0.61810  0.09779  1.0000
  Ti  Ti68      1.0  0.39330  0.86583  0.09881  1.0000
  O   O146      1.0  0.35312  0.75280  0.10796  1.0000
  O   O147      1.0  0.27236  0.92205  0.10643  1.0000
  O   O148      1.0  0.95148  0.99068  0.10296  1.0000
  O   O149      1.0  0.68145  0.68324  0.10702  1.0000
  Ti  Ti69      1.0  0.22892  0.56079  0.11236  1.0000
  Ti  Ti70      1.0  0.23253  0.80448  0.11956  1.0000
  O   O150      1.0  0.17270  0.69981  0.11691  1.0000
  O   O151      1.0  0.11135  0.87720  0.11981  1.0000
  O   O152      1.0  0.77018  0.94895  0.11730  1.0000
  O   O153      1.0  0.51051  0.63693  0.11909  1.0000
  Ti  Ti71      1.0  0.06140  0.51795  0.12669  1.0000
  Ti  Ti72      1.0  0.05125  0.76576  0.11858  1.0000
  O   O154      1.0  0.00024  0.65152  0.12970  1.0000
  O   O155      1.0  0.92446  0.82841  0.13139  1.0000
  O   O156      1.0  0.59489  0.91391  0.13209  1.0000
  O   O157      1.0  0.33738  0.58524  0.13168  1.0000
  Ti  Ti73      1.0  0.87726  0.96617  0.13985  1.0000
  Ti  Ti74      1.0  0.88667  0.72011  0.13666  1.0000
  O   O158      1.0  0.82955  0.61032  0.14123  1.0000
  O   O159      1.0  0.75790  0.78119  0.14890  1.0000
  O   O160      1.0  0.42178  0.87278  0.14232  1.0000
  O   O161      1.0  0.15322  0.54426  0.14717  1.0000
  Ti  Ti75      1.0  0.70889  0.92383  0.15038  1.0000
  Ti  Ti76      1.0  0.70792  0.67482  0.14512  1.0000
  O   O162      1.0  0.65685  0.55952  0.15494  1.0000
  O   O163      1.0  0.58608  0.73627  0.15726  1.0000
  O   O164      1.0  0.25488  0.80509  0.15645  1.0000
  O   O165      1.0  0.98070  0.97418  0.15566  1.0000
  Ti  Ti77      1.0  0.53780  0.87142  0.16281  1.0000
  Ti  Ti78      1.0  0.52773  0.63315  0.15797  1.0000
  O   O166      1.0  0.48155  0.52274  0.16654  1.0000
  O   O167      1.0  0.41563  0.69808  0.16964  1.0000
  O   O168      1.0  0.08452  0.76039  0.16772  1.0000
  O   O169      1.0  0.81672  0.92836  0.16906  1.0000
  Ti  Ti79      1.0  0.35928  0.84529  0.17494  1.0000
  Ti  Ti80      1.0  0.35435  0.59180  0.17570  1.0000
  O   O170      1.0  0.30079  0.97480  0.18045  1.0000
  O   O171      1.0  0.23832  0.64954  0.18167  1.0000
  O   O172      1.0  0.90309  0.73018  0.17800  1.0000
  O   O173      1.0  0.63975  0.89003  0.18357  1.0000
  Ti  Ti81      1.0  0.18287  0.79329  0.18906  1.0000
  Ti  Ti82      1.0  0.18671  0.52988  0.18802  1.0000
  O   O174      1.0  0.13233  0.92962  0.18877  1.0000
  O   O175      1.0  0.06828  0.60118  0.19354  1.0000
  O   O176      1.0  0.73089  0.67482  0.19119  1.0000
  O   O177      1.0  0.46316  0.85869  0.19179  1.0000
  Ti  Ti83      1.0  0.01080  0.74171  0.19634  1.0000
  Ti  Ti84      1.0  0.01496  0.99233  0.20314  1.0000
  O   O178      1.0  0.97061  0.87616  0.20317  1.0000
  O   O179      1.0  0.89264  0.55345  0.20557  1.0000
  O   O180      1.0  0.56269  0.61859  0.20204  1.0000
  O   O181      1.0  0.28575  0.81532  0.20861  1.0000
  Ti  Ti85      1.0  0.83878  0.69016  0.21051  1.0000
  Ti  Ti86      1.0  0.84723  0.93494  0.21577  1.0000
  O   O182      1.0  0.78554  0.82759  0.21715  1.0000
  O   O183      1.0  0.72147  0.00158  0.21884  1.0000
  O   O184      1.0  0.38421  0.57484  0.21490  1.0000
  O   O185      1.0  0.11858  0.76909  0.21915  1.0000
  Ti  Ti87      1.0  0.66818  0.64810  0.22179  1.0000
  Ti  Ti88      1.0  0.66509  0.89736  0.22051  1.0000
  O   O186      1.0  0.61446  0.78187  0.22567  1.0000
  O   O187      1.0  0.54180  0.96599  0.23189  1.0000
  O   O188      1.0  0.20920  0.53994  0.22686  1.0000
  O   O189      1.0  0.94187  0.71024  0.23088  1.0000
  Ti  Ti89      1.0  0.50551  0.58754  0.23453  1.0000
  Ti  Ti90      1.0  0.49232  0.84259  0.23478  1.0000
  O   O190      1.0  0.44143  0.73840  0.24022  1.0000
  O   O191      1.0  0.37246  0.90807  0.24357  1.0000
  O   O192      1.0  0.04035  0.98029  0.24115  1.0000
  O   O193      1.0  0.77175  0.66671  0.24367  1.0000
  Ti  Ti91      1.0  0.32620  0.55119  0.24737  1.0000
  Ti  Ti92      1.0  0.32141  0.79940  0.24724  1.0000
  O   O194      1.0  0.26354  0.68635  0.25198  1.0000
  O   O195      1.0  0.19732  0.87580  0.25957  1.0000
  O   O196      1.0  0.86773  0.94089  0.25339  1.0000
  O   O197      1.0  0.59678  0.61528  0.25740  1.0000
  Ti  Ti93      1.0  0.14893  0.99729  0.26040  1.0000
  Ti  Ti94      1.0  0.14855  0.75197  0.25806  1.0000
  O   O198      1.0  0.09224  0.64448  0.26318  1.0000
  O   O199      1.0  0.03179  0.82146  0.26529  1.0000
  O   O200      1.0  0.69523  0.90536  0.26383  1.0000
  O   O201      1.0  0.41932  0.57372  0.26588  1.0000
  Ti  Ti95      1.0  0.97659  0.96386  0.27560  1.0000
  Ti  Ti96      1.0  0.97354  0.71784  0.27078  1.0000
  O   O202      1.0  0.92193  0.59534  0.27401  1.0000
  O   O203      1.0  0.85235  0.77333  0.28018  1.0000
  O   O204      1.0  0.52093  0.84651  0.27540  1.0000
  O   O205      1.0  0.24875  0.52712  0.27989  1.0000
  Ti  Ti97      1.0  0.80427  0.90667  0.28517  1.0000
  Ti  Ti98      1.0  0.79815  0.65211  0.28608  1.0000
  O   O206      1.0  0.74808  0.54729  0.29112  1.0000
  O   O207      1.0  0.68378  0.72449  0.28935  1.0000
  O   O208      1.0  0.34908  0.79871  0.28689  1.0000
  O   O209      1.0  0.06874  0.99407  0.29282  1.0000
  Ti  Ti99      1.0  0.63737  0.85765  0.29491  1.0000
  Ti  Ti100     1.0  0.62364  0.60837  0.29617  1.0000
  O   O210      1.0  0.57063  0.01192  0.29815  1.0000
  O   O211      1.0  0.50336  0.68483  0.30484  1.0000
  O   O212      1.0  0.17180  0.76069  0.30115  1.0000
  O   O213      1.0  0.90672  0.92635  0.30537  1.0000
  Ti  Ti101     1.0  0.45638  0.81504  0.30702  1.0000
  Ti  Ti102     1.0  0.44819  0.56529  0.31020  1.0000
  O   O214      1.0  0.39730  0.96324  0.31179  1.0000
  O   O215      1.0  0.32578  0.63608  0.31522  1.0000
  O   O216      1.0  0.00285  0.69899  0.31320  1.0000
  O   O217      1.0  0.73368  0.88364  0.31770  1.0000
  Ti  Ti103     1.0  0.28479  0.78265  0.32050  1.0000
  Ti  Ti104     1.0  0.27193  0.53428  0.32467  1.0000
  O   O218      1.0  0.22729  0.91077  0.33117  1.0000
  O   O219      1.0  0.15263  0.59079  0.32737  1.0000
  O   O220      1.0  0.82939  0.66131  0.32483  1.0000
  O   O221      1.0  0.55524  0.84803  0.32575  1.0000
  Ti  Ti105     1.0  0.10176  0.73050  0.32790  1.0000
  Ti  Ti106     1.0  0.10588  0.98012  0.33813  1.0000
  O   O222      1.0  0.05292  0.86294  0.33865  1.0000
  O   O223      1.0  0.97887  0.54039  0.34264  1.0000
  O   O224      1.0  0.65547  0.60629  0.33621  1.0000
  O   O225      1.0  0.37299  0.80813  0.33952  1.0000
  Ti  Ti107     1.0  0.92493  0.67724  0.34582  1.0000
  Ti  Ti108     1.0  0.92764  0.93358  0.34627  1.0000
  O   O226      1.0  0.88151  0.81032  0.35322  1.0000
  O   O227      1.0  0.80657  0.99637  0.35101  1.0000
  O   O228      1.0  0.47273  0.57320  0.34686  1.0000
  O   O229      1.0  0.20837  0.73857  0.35104  1.0000
  Ti  Ti109     1.0  0.74377  0.63475  0.35866  1.0000
  Ti  Ti110     1.0  0.75962  0.88516  0.36166  1.0000
  O   O230      1.0  0.69908  0.77184  0.36487  1.0000
  O   O231      1.0  0.62841  0.95077  0.36627  1.0000
  O   O232      1.0  0.30447  0.52396  0.36145  1.0000
  O   O233      1.0  0.04211  0.68771  0.36552  1.0000
  Ti  Ti111     1.0  0.57760  0.58322  0.36957  1.0000
  Ti  Ti112     1.0  0.57715  0.84565  0.36300  1.0000
  O   O234      1.0  0.53200  0.72470  0.37181  1.0000
  O   O235      1.0  0.46515  0.89482  0.37944  1.0000
  O   O236      1.0  0.12830  0.98291  0.37631  1.0000
  O   O237      1.0  0.85291  0.65378  0.38014  1.0000
  Ti  Ti113     1.0  0.40879  0.53919  0.38172  1.0000
  Ti  Ti114     1.0  0.42222  0.78774  0.39189  1.0000
  O   O238      1.0  0.35610  0.67932  0.38832  1.0000
  O   O239      1.0  0.29029  0.84998  0.39124  1.0000
  O   O240      1.0  0.95775  0.92392  0.38584  1.0000
  O   O241      1.0  0.67931  0.59887  0.38917  1.0000
  Ti  Ti115     1.0  0.24482  0.98313  0.39572  1.0000
  Ti  Ti116     1.0  0.23795  0.73986  0.38576  1.0000
  O   O242      1.0  0.18704  0.63326  0.39916  1.0000
  O   O243      1.0  0.12575  0.81142  0.39987  1.0000
  O   O244      1.0  0.77577  0.89028  0.40053  1.0000
  O   O245      1.0  0.51293  0.55080  0.39854  1.0000
  Ti  Ti117     1.0  0.06646  0.94267  0.41055  1.0000
  Ti  Ti118     1.0  0.06380  0.69938  0.40219  1.0000
  O   O246      1.0  0.01499  0.58212  0.40966  1.0000
  O   O247      1.0  0.94461  0.75361  0.41218  1.0000
  O   O248      1.0  0.35136  0.01054  0.41611  1.0000
  Ti  Ti119     1.0  0.89027  0.90467  0.41732  1.0000
  Ti  Ti120     1.0  0.90139  0.63823  0.41676  1.0000
  O   O249      1.0  0.83736  0.54072  0.42573  1.0000
  O   O250      1.0  0.17240  0.96613  0.42507  1.0000
  O   O251      1.0  0.00442  0.90303  0.43709  1.0000
  O   O252      1.0  0.80759  0.74689  0.04271  1.0000
  O   O253      1.0  0.63617  0.69418  0.05582  1.0000
  O   O254      1.0  0.95426  0.61666  0.05382  1.0000
  H   H29       1.0  0.07734  0.09000  0.08222  1.0000
  H   H30       1.0  0.09953  0.93002  0.06843  1.0000
  O   O255      1.0  0.05341  0.92074  0.05585  1.0000
  H   H31       1.0  0.72195  0.71500  0.43673  1.0000
  H   H32       1.0  0.77866  0.80225  0.42089  1.0000
  O   O256      1.0  0.78605  0.73680  0.43130  1.0000
  H   H33       1.0  0.13487  0.99150  0.00752  1.0000
  H   H34       1.0  0.07315  0.06101  0.98882  1.0000
  O   O257      1.0  0.08314  0.99651  0.99569  1.0000
  H   H35       1.0  0.65267  0.94466  0.03383  1.0000
  H   H36       1.0  0.55258  0.83443  0.03554  1.0000
  O   O258      1.0  0.71772  0.94681  0.03327  1.0000
  H   H37       1.0  0.92095  0.43389  0.92006  1.0000
  H   H38       1.0  0.89438  0.58005  0.52835  1.0000
  O   O259      1.0  0.44511  0.78218  0.42625  1.0000
  H   H39       1.0  0.70006  0.32529  0.80349  1.0000
  H   H40       1.0  0.04688  0.99745  0.70137  1.0000
  O   O260      1.0  0.66907  0.39204  0.79770  1.0000
  H   H41       1.0  0.60665  0.36146  0.42587  1.0000
  H   H42       1.0  0.78171  0.54244  0.41799  1.0000
  O   O261      1.0  0.72946  0.37974  0.66272  1.0000
  H   H43       1.0  0.97527  0.84659  0.83994  1.0000
  H   H44       1.0  0.92622  0.99570  0.59368  1.0000
  O   O262      1.0  0.51748  0.97912  0.63213  1.0000
  H   H45       1.0  0.05218  0.35175  0.61109  1.0000
  H   H46       1.0  0.98029  0.44443  0.61156  1.0000
  O   O263      1.0  0.99523  0.38520  0.62111  1.0000
  H   H47       1.0  0.45911  0.56313  0.94345  1.0000
  H   H48       1.0  0.47708  0.51341  0.91746  1.0000
  O   O264      1.0  0.51102  0.54079  0.93178  1.0000
  H   H49       1.0  0.74643  0.88143  0.02829  1.0000
  H   H50       1.0  0.25193  0.84728  0.63174  1.0000
  O   O265      1.0  0.81368  0.61355  0.50042  1.0000
  H   H51       1.0  0.39766  0.03123  0.97953  1.0000
  H   H52       1.0  0.81002  0.76445  0.87226  1.0000
  O   O266      1.0  0.40088  0.01330  0.01966  1.0000
  H   H53       1.0  0.04292  0.57965  0.51760  1.0000
  H   H54       1.0  0.09837  0.65757  0.50786  1.0000
  O   O267      1.0  0.09146  0.59154  0.50485  1.0000
  H   H55       1.0  0.29163  0.89375  0.03329  1.0000
  H   H56       1.0  0.26109  0.87470  0.00395  1.0000
  O   O268      1.0  0.25995  0.92869  0.01710  1.0000
  H   H57       1.0  0.28645  0.63556  0.58618  1.0000
  H   H58       1.0  0.36660  0.54442  0.59216  1.0000
  O   O269      1.0  0.34791  0.61398  0.59310  1.0000
  H   H59       1.0  0.50215  0.29044  0.98744  1.0000
  H   H60       1.0  0.60030  0.31475  0.98243  1.0000
  O   O270      1.0  0.56360  0.28415  0.99547  1.0000
  H   H61       1.0  0.70297  0.16558  0.91628  1.0000
  H   H62       1.0  0.67733  0.06226  0.91374  1.0000
  O   O271      1.0  0.66184  0.12717  0.92268  1.0000
  H   H63       1.0  0.62683  0.16196  0.46025  1.0000
  H   H64       1.0  0.72638  0.17410  0.45718  1.0000
  O   O272      1.0  0.67861  0.16727  0.47078  1.0000
  H   H65       1.0  0.00574  0.21491  0.85313  1.0000
  H   H66       1.0  0.62609  0.24410  0.55169  1.0000
  O   O273      1.0  0.03000  0.27549  0.85178  1.0000
  H   H67       1.0  0.40966  0.63840  0.56336  1.0000
  H   H68       1.0  0.10518  0.21709  0.46159  1.0000
  O   O274      1.0  0.41921  0.66273  0.54400  1.0000
  H   H69       1.0  0.75274  0.00767  0.52867  1.0000
  H   H70       1.0  0.77899  0.01679  0.55954  1.0000
  O   O275      1.0  0.73805  0.99189  0.54791  1.0000
  H   H71       1.0  0.09107  0.77284  0.45452  1.0000
  H   H72       1.0  0.96263  0.55682  0.55530  1.0000
  O   O276      1.0  0.95551  0.54747  0.53305  1.0000
  H   H73       1.0  0.92522  0.86618  0.01480  1.0000
  H   H74       1.0  0.01978  0.79762  0.01343  1.0000
  O   O277      1.0  0.24454  0.80989  0.64874  1.0000
  H   H75       1.0  0.90730  0.91044  0.62628  1.0000
  H   H76       1.0  0.00667  0.90874  0.63605  1.0000
  O   O278      1.0  0.95352  0.94814  0.62753  1.0000
  H   H77       1.0  0.90664  0.37526  0.78920  1.0000
  H   H78       1.0  0.96698  0.36210  0.76278  1.0000
  O   O279      1.0  0.91477  0.34462  0.77070  1.0000
  H   H79       1.0  0.21237  0.36337  0.62447  1.0000
  H   H80       1.0  0.16275  0.44207  0.64450  1.0000
  O   O280      1.0  0.22422  0.41486  0.63916  1.0000
  H   H81       1.0  0.11340  0.81132  0.50554  1.0000
  H   H82       1.0  0.20627  0.76909  0.51437  1.0000
  O   O281      1.0  0.14342  0.75860  0.51688  1.0000
  H   H83       1.0  0.24205  0.72320  0.06976  1.0000
  H   H84       1.0  0.26404  0.82796  0.07100  1.0000
  O   O282      1.0  0.21399  0.79267  0.07198  1.0000
  H   H85       1.0  0.41610  0.31318  0.49035  1.0000
  H   H86       1.0  0.31186  0.35696  0.48818  1.0000
  O   O283      1.0  0.35831  0.29317  0.48724  1.0000
  H   H87       1.0  0.92043  0.40048  0.68278  1.0000
  H   H88       1.0  0.99601  0.35637  0.66043  1.0000
  O   O284      1.0  0.97812  0.35280  0.68038  1.0000
  H   H89       1.0  0.66740  0.81393  0.67586  1.0000
  H   H90       1.0  0.62200  0.73445  0.66424  1.0000
  O   O285      1.0  0.66347  0.74573  0.67919  1.0000
  H   H91       1.0  0.71406  0.32784  0.92662  1.0000
  H   H92       1.0  0.79664  0.24532  0.92615  1.0000
  O   O286      1.0  0.76238  0.29226  0.91358  1.0000
  H   H93       1.0  0.67928  0.41144  0.02993  1.0000
  H   H94       1.0  0.12897  0.61601  0.06172  1.0000
  O   O287      1.0  0.13630  0.62852  0.04212  1.0000
  H   H95       1.0  0.51746  0.81039  0.82049  1.0000
  H   H96       1.0  0.48919  0.83739  0.78970  1.0000
  O   O288      1.0  0.53503  0.84162  0.80468  1.0000
  H   H97       1.0  0.51762  0.99790  0.94738  1.0000
  H   H98       1.0  0.39922  0.81305  0.04634  1.0000
  O   O289      1.0  0.36187  0.85795  0.05865  1.0000
  H   H99       1.0  0.34418  0.40372  0.04658  1.0000
  H   H100      1.0  0.74793  0.53858  0.98740  1.0000
  O   O290      1.0  0.76889  0.47765  0.97743  1.0000
  H   H101      1.0  0.98271  0.09925  0.78571  1.0000
  H   H102      1.0  0.03038  0.07448  0.81414  1.0000
  O   O291      1.0  0.04026  0.07039  0.79310  1.0000
  H   H103      1.0  0.04469  0.47579  0.68225  1.0000
  H   H104      1.0  0.11389  0.54137  0.67668  1.0000
  O   O292      1.0  0.06036  0.52572  0.67076  1.0000
  H   H105      1.0  0.58561  0.27964  0.65802  1.0000
  H   H106      1.0  0.54127  0.24088  0.68596  1.0000
  O   O293      1.0  0.59668  0.24413  0.67538  1.0000
  H   H107      1.0  0.09341  0.08326  0.65539  1.0000
  H   H108      1.0  0.18538  0.05446  0.66789  1.0000
  O   O294      1.0  0.15437  0.05109  0.65087  1.0000
  H   H109      1.0  0.40524  0.87495  0.75438  1.0000
  H   H110      1.0  0.15928  0.67589  0.44829  1.0000
  O   O295      1.0  0.40655  0.83463  0.77098  1.0000
  H   H111      1.0  0.30651  0.67165  0.75012  1.0000
  H   H112      1.0  0.37463  0.72992  0.75943  1.0000
  O   O296      1.0  0.37222  0.66123  0.75437  1.0000
  H   H113      1.0  0.82792  0.85225  0.83147  1.0000
  H   H114      1.0  0.83964  0.89548  0.80116  1.0000
  O   O297      1.0  0.84632  0.90667  0.82167  1.0000
  H   H115      1.0  0.77008  0.53744  0.75415  1.0000
  H   H116      1.0  0.84921  0.44532  0.75647  1.0000
  O   O298      1.0  0.82865  0.50708  0.74780  1.0000
  H   H117      1.0  0.22562  0.61470  0.69983  1.0000
  H   H118      1.0  0.21954  0.57677  0.66783  1.0000
  O   O299      1.0  0.24073  0.55537  0.68675  1.0000
  H   H119      1.0  0.65673  0.79361  0.51595  1.0000
  H   H120      1.0  0.66664  0.68970  0.52706  1.0000
  O   O300      1.0  0.69938  0.74197  0.52553  1.0000
  H   H121      1.0  0.22400  0.23494  0.90897  1.0000
  H   H122      1.0  0.32087  0.21735  0.91181  1.0000
  O   O301      1.0  0.27449  0.23208  0.89687  1.0000
  H   H123      1.0  0.60531  0.17527  0.98302  1.0000
  H   H124      1.0  0.66006  0.11614  0.95836  1.0000
  O   O302      1.0  0.64661  0.11041  0.97836  1.0000
  H   H125      1.0  0.27763  0.86412  0.94577  1.0000
  H   H126      1.0  0.36090  0.87255  0.92451  1.0000
  O   O303      1.0  0.31587  0.90424  0.93861  1.0000
  H   H127      1.0  0.41568  0.36558  0.58984  1.0000
  H   H128      1.0  0.48825  0.43053  0.58456  1.0000
  O   O304      1.0  0.42701  0.43129  0.59125  1.0000
  H   H129      1.0  0.84581  0.17304  0.77955  1.0000
  H   H130      1.0  0.91241  0.22552  0.76575  1.0000
  O   O305      1.0  0.90156  0.15992  0.76900  1.0000
  H   H131      1.0  0.19735  0.13126  0.70808  1.0000
  H   H132      1.0  0.25370  0.16586  0.68562  1.0000
  O   O306      1.0  0.25230  0.11780  0.69888  1.0000
  H   H133      1.0  0.90018  0.58272  0.75828  1.0000
  H   H134      1.0  0.97167  0.65575  0.75562  1.0000
  O   O307      1.0  0.93113  0.63321  0.76681  1.0000
  H   H135      1.0  0.63195  0.89847  0.73878  1.0000
  H   H136      1.0  0.02563  0.23730  0.70506  1.0000
  O   O308      1.0  0.63282  0.95765  0.72838  1.0000
  H   H137      1.0  0.97484  0.00887  0.89744  1.0000
  H   H138      1.0  0.03129  0.91885  0.87924  1.0000
  O   O309      1.0  0.02950  0.98536  0.88471  1.0000
  H   H139      1.0  0.35907  0.86472  0.83783  1.0000
  H   H140      1.0  0.35178  0.04571  0.44533  1.0000
  O   O310      1.0  0.35477  0.08444  0.46374  1.0000
  H   H141      1.0  0.05029  0.96107  0.78172  1.0000
  H   H142      1.0  0.09928  0.93213  0.75379  1.0000
  O   O311      1.0  0.07779  0.90242  0.76993  1.0000
  H   H143      1.0  0.00010  0.60629  0.98220  1.0000
  H   H144      1.0  0.94504  0.68264  0.00202  1.0000
  O   O312      1.0  0.94554  0.61953  0.99477  1.0000
  H   H145      1.0  0.40668  0.45044  0.81060  1.0000
  H   H146      1.0  0.35710  0.38155  0.82676  1.0000
  O   O313      1.0  0.41155  0.38328  0.81785  1.0000
  H   H147      1.0  0.38980  0.62387  0.53093  1.0000
  H   H148      1.0  0.99662  0.45605  0.45705  1.0000
  O   O314      1.0  0.11773  0.16453  0.45052  1.0000
  H   H149      1.0  0.60471  0.69139  0.93561  1.0000
  H   H150      1.0  0.56719  0.61884  0.91651  1.0000
  O   O315      1.0  0.59523  0.67238  0.91636  1.0000
  H   H151      1.0  0.48814  0.87012  0.90553  1.0000
  H   H152      1.0  0.50651  0.76056  0.91127  1.0000
  O   O316      1.0  0.45568  0.81563  0.90705  1.0000
  H   H153      1.0  0.57621  0.93926  0.50675  1.0000
  H   H154      1.0  0.58489  0.91948  0.47408  1.0000
  O   O317      1.0  0.61818  0.90819  0.49224  1.0000
  H   H155      1.0  0.80249  0.15956  0.71213  1.0000
  H   H156      1.0  0.88822  0.12754  0.73164  1.0000
  O   O318      1.0  0.86238  0.11973  0.71234  1.0000
  H   H157      1.0  0.24334  0.43943  0.54802  1.0000
  H   H158      1.0  0.17718  0.53086  0.53449  1.0000
  O   O319      1.0  0.23524  0.50707  0.54253  1.0000
  H   H159      1.0  0.40101  0.36152  0.42763  1.0000
  H   H160      1.0  0.95823  0.94486  0.94177  1.0000
  O   O320      1.0  0.91111  0.99112  0.93236  1.0000
  H   H161      1.0  0.91420  0.31659  0.57485  1.0000
  H   H162      1.0  0.07679  0.81787  0.84303  1.0000
  O   O321      1.0  0.02411  0.82468  0.85413  1.0000
  H   H163      1.0  0.21705  0.10250  0.05542  1.0000
  H   H164      1.0  0.11997  0.13884  0.04527  1.0000
  O   O322      1.0  0.17999  0.13561  0.03996  1.0000
  H   H165      1.0  0.06406  0.07822  0.55404  1.0000
  H   H166      1.0  0.44438  0.44729  0.49862  1.0000
  O   O323      1.0  0.48592  0.38926  0.49122  1.0000
  H   H167      1.0  0.32925  0.25652  0.43581  1.0000
  H   H168      1.0  0.30117  0.17197  0.44808  1.0000
  O   O324      1.0  0.27418  0.23507  0.43742  1.0000
  H   H169      1.0  0.73481  0.12411  0.99849  1.0000
  H   H170      1.0  0.49120  0.93542  0.03587  1.0000
  O   O325      1.0  0.79912  0.12950  0.00116  1.0000
  H   H171      1.0  0.50889  0.09803  0.84530  1.0000
  H   H172      1.0  0.41685  0.12054  0.85764  1.0000
  O   O326      1.0  0.47953  0.11352  0.86322  1.0000
  H   H173      1.0  0.00911  0.02471  0.49137  1.0000
  H   H174      1.0  0.07543  0.09047  0.47768  1.0000
  O   O327      1.0  0.02530  0.08500  0.49124  1.0000
  H   H175      1.0  0.92480  0.89085  0.54913  1.0000
  H   H176      1.0  0.84494  0.85460  0.54040  1.0000
  O   O328      1.0  0.90482  0.84344  0.53606  1.0000
  H   H177      1.0  0.46820  0.84902  0.58034  1.0000
  H   H178      1.0  0.41475  0.79515  0.56488  1.0000
  O   O329      1.0  0.40673  0.85869  0.57342  1.0000
  H   H179      1.0  0.07985  0.61642  0.03295  1.0000
  H   H180      1.0  0.77636  0.36759  0.03358  1.0000
  O   O330      1.0  0.73484  0.43397  0.03256  1.0000
  H   H181      1.0  0.65305  0.46921  0.59031  1.0000
  H   H182      1.0  0.65778  0.42172  0.56217  1.0000
  O   O331      1.0  0.61287  0.45708  0.57482  1.0000
  H   H183      1.0  0.38571  0.42462  0.90015  1.0000
  H   H184      1.0  0.47505  0.39984  0.88451  1.0000
  O   O332      1.0  0.43008  0.45784  0.89154  1.0000
  H   H185      1.0  0.81953  0.48583  0.71520  1.0000
  H   H186      1.0  0.36848  0.87093  0.78398  1.0000
  O   O333      1.0  0.82282  0.48328  0.69458  1.0000
  H   H187      1.0  0.85134  0.46286  0.01248  1.0000
  H   H188      1.0  0.93121  0.52849  0.01093  1.0000
  O   O334      1.0  0.90740  0.47410  0.01957  1.0000
  H   H189      1.0  0.23520  0.55040  0.62965  1.0000
  H   H190      1.0  0.14139  0.60997  0.62867  1.0000
  O   O335      1.0  0.20095  0.60983  0.63692  1.0000
  H   H191      1.0  0.92333  0.06533  0.56465  1.0000
  H   H192      1.0  0.69518  0.95334  0.72273  1.0000
  O   O336      1.0  0.89203  0.02920  0.57698  1.0000
  H   H193      1.0  0.30041  0.53763  0.88202  1.0000
  H   H194      1.0  0.25800  0.59966  0.85349  1.0000
  O   O337      1.0  0.27840  0.60122  0.87402  1.0000
  H   H195      1.0  0.45723  0.03101  0.53345  1.0000
  H   H196      1.0  0.45072  0.93298  0.54316  1.0000
  O   O338      1.0  0.49447  0.96765  0.53726  1.0000
  H   H197      1.0  0.14115  0.14528  0.93247  1.0000
  H   H198      1.0  0.16984  0.21755  0.95699  1.0000
  O   O339      1.0  0.13059  0.21315  0.94075  1.0000
  H   H199      1.0  0.15039  0.95232  0.70385  1.0000
  H   H200      1.0  0.82774  0.44956  0.90604  1.0000
  O   O340      1.0  0.09788  0.99546  0.71351  1.0000
  H   H201      1.0  0.22341  0.76057  0.71506  1.0000
  H   H202      1.0  0.14387  0.71681  0.73020  1.0000
  O   O341      1.0  0.20580  0.70182  0.72293  1.0000
  H   H203      1.0  0.92629  0.28829  0.62296  1.0000
  H   H204      1.0  0.91515  0.21025  0.64165  1.0000
  O   O342      1.0  0.88845  0.24121  0.62463  1.0000
  H   H205      1.0  0.88437  0.10545  0.94384  1.0000
  H   H206      1.0  0.82860  0.15699  0.97088  1.0000
  O   O343      1.0  0.86205  0.17154  0.95335  1.0000
  H   H207      1.0  0.00558  0.59765  0.59616  1.0000
  H   H208      1.0  0.90910  0.58394  0.59317  1.0000
  O   O344      1.0  0.96959  0.55092  0.58766  1.0000
  H   H209      1.0  0.76729  0.68312  0.66920  1.0000
  H   H210      1.0  0.83704  0.58722  0.68092  1.0000
  O   O345      1.0  0.83079  0.64807  0.67016  1.0000
  H   H211      1.0  0.74922  0.05497  0.48261  1.0000
  H   H212      1.0  0.70425  0.96739  0.49419  1.0000
  O   O346      1.0  0.75897  0.99616  0.49482  1.0000
  H   H213      1.0  0.34881  0.20576  0.64159  1.0000
  H   H214      1.0  0.30019  0.30432  0.65619  1.0000
  O   O347      1.0  0.31981  0.23411  0.65852  1.0000
  H   H215      1.0  0.63157  0.81919  0.59514  1.0000
  H   H216      1.0  0.56618  0.76590  0.61323  1.0000
  O   O348      1.0  0.56681  0.82042  0.60059  1.0000
  H   H217      1.0  0.82832  0.92054  0.73630  1.0000
  H   H218      1.0  0.83590  0.00817  0.71559  1.0000
  O   O349      1.0  0.82641  0.94062  0.71636  1.0000
  H   H219      1.0  0.52436  0.30203  0.76104  1.0000
  H   H220      1.0  0.46767  0.31276  0.79126  1.0000
  O   O350      1.0  0.49565  0.26624  0.77635  1.0000
  H   H221      1.0  0.62930  0.66092  0.42556  1.0000
  H   H222      1.0  0.41395  0.17876  0.60082  1.0000
  O   O351      1.0  0.39002  0.13580  0.61393  1.0000
  H   H223      1.0  0.80505  0.18058  0.01491  1.0000
  H   H224      1.0  0.59122  0.02104  0.96926  1.0000
  O   O352      1.0  0.56235  0.96981  0.96077  1.0000
  H   H225      1.0  0.49381  0.01953  0.89037  1.0000
  H   H226      1.0  0.58434  0.96525  0.90300  1.0000
  O   O353      1.0  0.52035  0.97367  0.90507  1.0000
  H   H227      1.0  0.15359  0.21161  0.77361  1.0000
  H   H228      1.0  0.12927  0.12627  0.78763  1.0000
  O   O354      1.0  0.18076  0.15136  0.78350  1.0000
  H   H229      1.0  0.72034  0.15162  0.78716  1.0000
  H   H230      1.0  0.75191  0.15233  0.81744  1.0000
  O   O355      1.0  0.75602  0.18708  0.80043  1.0000
  H   H231      1.0  0.15637  0.74998  0.55228  1.0000
  H   H232      1.0  0.20339  0.78790  0.57809  1.0000
  O   O356      1.0  0.18584  0.72729  0.56931  1.0000
  H   H233      1.0  0.28990  0.06789  0.77995  1.0000
  H   H234      1.0  0.38151  0.09694  0.77549  1.0000
  O   O357      1.0  0.35190  0.04283  0.77740  1.0000
  H   H235      1.0  0.97179  0.01270  0.01344  1.0000
  H   H236      1.0  0.87254  0.03721  0.00950  1.0000
  O   O358      1.0  0.91835  0.98843  0.01856  1.0000
  H   H237      1.0  0.90942  0.85146  0.69692  1.0000
  H   H238      1.0  0.91859  0.74893  0.68892  1.0000
  O   O359      1.0  0.95509  0.79364  0.69422  1.0000
  H   H239      1.0  0.69783  0.97343  0.87584  1.0000
  H   H240      1.0  0.72903  0.90520  0.90404  1.0000
  O   O360      1.0  0.68997  0.96230  0.89644  1.0000
  H   H241      1.0  0.24960  0.50837  0.02850  1.0000
  H   H242      1.0  0.31364  0.54199  0.04781  1.0000
  O   O361      1.0  0.31452  0.49741  0.03164  1.0000
  H   H243      1.0  0.40007  0.14110  0.94756  1.0000
  H   H244      1.0  0.44627  0.21695  0.92979  1.0000
  O   O362      1.0  0.39705  0.20435  0.94054  1.0000
  H   H245      1.0  0.75866  0.32969  0.65105  1.0000
  H   H246      1.0  0.91212  0.15231  0.85282  1.0000
  O   O363      1.0  0.46624  0.77415  0.85344  1.0000
  H   H247      1.0  0.30775  0.10439  0.60109  1.0000
  H   H248      1.0  0.21732  0.09360  0.61540  1.0000
  O   O364      1.0  0.24009  0.10429  0.59795  1.0000
  H   H249      1.0  0.96571  0.88703  0.47974  1.0000
  H   H250      1.0  0.95299  0.89451  0.51084  1.0000
  O   O365      1.0  0.99041  0.91472  0.49612  1.0000
  H   H251      1.0  0.54504  0.37192  0.62234  1.0000
  H   H252      1.0  0.62153  0.28840  0.60887  1.0000
  O   O366      1.0  0.59379  0.31736  0.62712  1.0000
  H   H253      1.0  0.78338  0.40979  0.46898  1.0000
  H   H254      1.0  0.87187  0.37771  0.48037  1.0000
  O   O367      1.0  0.83962  0.36725  0.46468  1.0000
  H   H255      1.0  0.17419  0.30451  0.58575  1.0000
  H   H256      1.0  0.17027  0.22153  0.60701  1.0000
  O   O368      1.0  0.15466  0.29313  0.60447  1.0000
  H   H257      1.0  0.59283  0.61121  0.85416  1.0000
  H   H258      1.0  0.64402  0.64984  0.87725  1.0000
  O   O369      1.0  0.65361  0.62009  0.85917  1.0000
  H   H259      1.0  0.41697  0.09971  0.46236  1.0000
  H   H260      1.0  0.95662  0.22151  0.55626  1.0000
  O   O370      1.0  0.90979  0.28992  0.55610  1.0000
  H   H261      1.0  0.57488  0.22445  0.90602  1.0000
  H   H262      1.0  0.50109  0.19913  0.88657  1.0000
  O   O371      1.0  0.51497  0.24779  0.89968  1.0000
  H   H263      1.0  0.97884  0.66619  0.47119  1.0000
  H   H264      1.0  0.18634  0.31296  0.53218  1.0000
  O   O372      1.0  0.93221  0.64186  0.46104  1.0000
  H   H265      1.0  0.03341  0.80404  0.67152  1.0000
  H   H266      1.0  0.12743  0.78824  0.65921  1.0000
  O   O373      1.0  0.06426  0.80989  0.65415  1.0000
  H   H267      1.0  0.76841  0.38322  0.86573  1.0000
  H   H268      1.0  0.72885  0.48497  0.86713  1.0000
  O   O374      1.0  0.78720  0.44343  0.86973  1.0000
  H   H269      1.0  0.28180  0.23403  0.98201  1.0000
  H   H270      1.0  0.23542  0.17695  0.99971  1.0000
  O   O375      1.0  0.22439  0.23708  0.98916  1.0000
  H   H271      1.0  0.21226  0.69692  0.81781  1.0000
  H   H272      1.0  0.20090  0.59182  0.80971  1.0000
  O   O376      1.0  0.24180  0.62444  0.82021  1.0000
  H   H273      1.0  0.16566  0.44501  0.85234  1.0000
  H   H274      1.0  0.10110  0.52820  0.87095  1.0000
  O   O377      1.0  0.13257  0.46404  0.87096  1.0000
  H   H275      1.0  0.61878  0.06149  0.75394  1.0000
  H   H276      1.0  0.57469  0.15448  0.77275  1.0000
  O   O378      1.0  0.62156  0.09682  0.77134  1.0000
  H   H277      1.0  0.76873  0.82351  0.76710  1.0000
  H   H278      1.0  0.86344  0.77741  0.76409  1.0000
  O   O379      1.0  0.82578  0.84253  0.76485  1.0000
  H   H279      1.0  0.56196  0.29548  0.86135  1.0000
  H   H280      1.0  0.49552  0.37185  0.84157  1.0000
  O   O380      1.0  0.54593  0.35937  0.85423  1.0000
  H   H281      1.0  0.20816  0.45807  0.97494  1.0000
  H   H282      1.0  0.24411  0.42735  0.94470  1.0000
  O   O381      1.0  0.26389  0.43986  0.96518  1.0000
  H   H283      1.0  0.52993  0.10930  0.43318  1.0000
  H   H284      1.0  0.48429  0.21484  0.44090  1.0000
  O   O382      1.0  0.50963  0.14994  0.44896  1.0000
  H   H285      1.0  0.10268  0.51342  0.79651  1.0000
  H   H286      1.0  0.18822  0.48416  0.77310  1.0000
  O   O383      1.0  0.16815  0.50631  0.79143  1.0000
  H   H287      1.0  0.12695  0.23622  0.83844  1.0000
  H   H288      1.0  0.19476  0.18441  0.81491  1.0000
  O   O384      1.0  0.18924  0.21348  0.83289  1.0000
  H   H289      1.0  0.07381  0.89860  0.96592  1.0000
  H   H290      1.0  0.00604  0.82643  0.95870  1.0000
  O   O385      1.0  0.04628  0.86410  0.95117  1.0000
  H   H291      1.0  0.34204  0.61229  0.80933  1.0000
  H   H292      1.0  0.41546  0.60089  0.78660  1.0000
  O   O386      1.0  0.40505  0.57840  0.80521  1.0000
  H   H293      1.0  0.41083  0.05938  0.03246  1.0000
  H   H294      1.0  0.34173  0.99420  0.02013  1.0000
  O   O387      1.0  0.71654  0.03550  0.84838  1.0000
  H   H295      1.0  0.18398  0.05351  0.57320  1.0000
  H   H296      1.0  0.18303  0.00405  0.54353  1.0000
  O   O388      1.0  0.15450  0.00899  0.56136  1.0000
  H   H297      1.0  0.47653  0.79810  0.99314  1.0000
  H   H298      1.0  0.48623  0.70761  0.01373  1.0000
  O   O389      1.0  0.46226  0.77831  0.01238  1.0000
  H   H299      1.0  0.16825  0.36565  0.00592  1.0000
  H   H300      1.0  0.10232  0.45554  0.02279  1.0000
  O   O390      1.0  0.14718  0.43773  0.00856  1.0000
  H   H301      1.0  0.13740  0.01090  0.89841  1.0000
  H   H302      1.0  0.23722  0.98917  0.91071  1.0000
  O   O391      1.0  0.18899  0.03536  0.90467  1.0000
  H   H303      1.0  0.54613  0.96075  0.42394  1.0000
  H   H304      1.0  0.08905  0.70597  0.59247  1.0000
  O   O392      1.0  0.55825  0.90324  0.43584  1.0000
  H   H305      1.0  0.35061  0.82116  0.44736  1.0000
  H   H306      1.0  0.25479  0.86691  0.44768  1.0000
  O   O393      1.0  0.30446  0.83629  0.46080  1.0000
  H   H307      1.0  0.53254  0.50589  0.43439  1.0000
  H   H308      1.0  0.54037  0.44420  0.46177  1.0000
  O   O394      1.0  0.57456  0.46830  0.44693  1.0000
  H   H309      1.0  0.64224  0.48942  0.47201  1.0000
  H   H310      1.0  0.65399  0.50831  0.50326  1.0000
  O   O395      1.0  0.68886  0.48355  0.48636  1.0000
  H   H311      1.0  0.88616  0.63262  0.47717  1.0000
  H   H312      1.0  0.26147  0.24533  0.55010  1.0000
  O   O396      1.0  0.22148  0.30971  0.54941  1.0000
  H   H313      1.0  0.43130  0.58228  0.99972  1.0000
  H   H314      1.0  0.44652  0.58489  0.03464  1.0000
  O   O397      1.0  0.47346  0.57145  0.01591  1.0000
  H   H315      1.0  0.40945  0.20902  0.67911  1.0000
  H   H316      1.0  0.46931  0.11612  0.69298  1.0000
  O   O398      1.0  0.44929  0.18975  0.69458  1.0000
  H   H317      1.0  0.21120  0.42591  0.81664  1.0000
  H   H318      1.0  0.22242  0.32582  0.83016  1.0000
  O   O399      1.0  0.23796  0.38704  0.83201  1.0000
  H   H319      1.0  0.42052  0.93222  0.70757  1.0000
  H   H320      1.0  0.62845  0.40491  0.81414  1.0000
  O   O400      1.0  0.86369  0.47736  0.92179  1.0000
  H   H321      1.0  0.99855  0.75937  0.72497  1.0000
  H   H322      1.0  0.02686  0.79144  0.75317  1.0000
  O   O401      1.0  0.02790  0.73514  0.74246  1.0000
  H   H323      1.0  0.24392  0.85508  0.67767  1.0000
  H   H324      1.0  0.29410  0.88539  0.70628  1.0000
  O   O402      1.0  0.23789  0.86662  0.69947  1.0000
  H   H325      1.0  0.87772  0.59035  0.91120  1.0000
  H   H326      1.0  0.92583  0.64622  0.88828  1.0000
  O   O403      1.0  0.88635  0.65493  0.90567  1.0000
  H   H327      1.0  0.71284  0.47021  0.63349  1.0000
  H   H328      1.0  0.75665  0.53842  0.61349  1.0000
  O   O404      1.0  0.71715  0.49004  0.61453  1.0000
  H   H329      1.0  0.54977  0.34855  0.03421  1.0000
  H   H330      1.0  0.04135  0.74448  0.62005  1.0000
  O   O405      1.0  0.77798  0.76617  0.85435  1.0000
  H   H331      1.0  0.41013  0.29732  0.05076  1.0000
  H   H332      1.0  0.80206  0.48900  0.96041  1.0000
  O   O406      1.0  0.36055  0.34148  0.06046  1.0000
  H   H333      1.0  0.04128  0.85657  0.06158  1.0000
  H   H334      1.0  0.53254  0.46538  0.03265  1.0000
  O   O407      1.0  0.56157  0.40993  0.04249  1.0000
  H   H335      1.0  0.66148  0.67575  0.71182  1.0000
  H   H336      1.0  0.59517  0.62218  0.72753  1.0000
  O   O408      1.0  0.63936  0.65990  0.73017  1.0000
  H   H337      1.0  0.91948  0.13225  0.68352  1.0000
  H   H338      1.0  0.92384  0.07209  0.65615  1.0000
  O   O409      1.0  0.95501  0.11463  0.66657  1.0000
  H   H339      1.0  0.78819  0.22696  0.87982  1.0000
  H   H340      1.0  0.75277  0.14816  0.86320  1.0000
  O   O410      1.0  0.79279  0.19380  0.86217  1.0000
  H   H341      1.0  0.77617  0.45622  0.68585  1.0000
  H   H342      1.0  0.43978  0.08128  0.61796  1.0000
  O   O411      1.0  0.09463  0.70474  0.44701  1.0000
  H   H343      1.0  0.46294  0.56073  0.86563  1.0000
  H   H344      1.0  0.46930  0.57904  0.83239  1.0000
  O   O412      1.0  0.50063  0.56790  0.85049  1.0000
  H   H345      1.0  0.68880  0.30251  0.52055  1.0000
  H   H346      1.0  0.64090  0.23632  0.49935  1.0000
  O   O413      1.0  0.63274  0.27882  0.51703  1.0000
  H   H347      1.0  0.56914  0.01815  0.63205  1.0000
  H   H348      1.0  0.29211  0.75118  0.64819  1.0000
  O   O414      1.0  0.95580  0.79750  0.01622  1.0000
  H   H349      1.0  0.59613  0.44076  0.94498  1.0000
  H   H350      1.0  0.68548  0.43221  0.96417  1.0000
  O   O415      1.0  0.64531  0.39395  0.95546  1.0000
  H   H351      1.0  0.70397  0.96713  0.65915  1.0000
  H   H352      1.0  0.76212  0.91033  0.68411  1.0000
  O   O416      1.0  0.72722  0.90166  0.66713  1.0000
  H   H353      1.0  0.66222  0.72887  0.97708  1.0000
  H   H354      1.0  0.59869  0.83426  0.96288  1.0000
  O   O417      1.0  0.62167  0.76198  0.96169  1.0000
  H   H355      1.0  0.34439  0.98307  0.72501  1.0000
  H   H356      1.0  0.03258  0.29674  0.87232  1.0000
  O   O418      1.0  0.37996  0.91969  0.72206  1.0000
  H   H357      1.0  0.30193  0.95696  0.51546  1.0000
  H   H358      1.0  0.27410  0.04117  0.49476  1.0000
  O   O419      1.0  0.26611  0.02362  0.51439  1.0000
  H   H359      1.0  0.35616  0.37380  0.98584  1.0000
  H   H360      1.0  0.39166  0.27299  0.97219  1.0000
  O   O420      1.0  0.39345  0.30872  0.98856  1.0000
  H   H361      1.0  0.59852  0.71612  0.45407  1.0000
  H   H362      1.0  0.71881  0.34298  0.67958  1.0000
  O   O421      1.0  0.64583  0.67042  0.44457  1.0000
  H   H363      1.0  0.13421  0.84370  0.79917  1.0000
  H   H364      1.0  0.22138  0.84300  0.81907  1.0000
  O   O422      1.0  0.16342  0.82220  0.81698  1.0000
  H   H365      1.0  0.86484  0.44058  0.83466  1.0000
  H   H366      1.0  0.95713  0.36030  0.83466  1.0000
  O   O423      1.0  0.91885  0.41555  0.82440  1.0000
  H   H367      1.0  0.22108  0.42979  0.45969  1.0000
  H   H368      1.0  0.17530  0.49332  0.48076  1.0000
  O   O424      1.0  0.22989  0.44724  0.47840  1.0000
  H   H369      1.0  0.13167  0.35220  0.74807  1.0000
  H   H370      1.0  0.09944  0.25873  0.73931  1.0000
  O   O425      1.0  0.09762  0.30706  0.75553  1.0000
  H   H371      1.0  0.99395  0.64758  0.93049  1.0000
  H   H372      1.0  0.09407  0.65315  0.93228  1.0000
  O   O426      1.0  0.04067  0.64262  0.94408  1.0000
  H   H373      1.0  0.67404  0.30274  0.72342  1.0000
  H   H374      1.0  0.67955  0.23447  0.69891  1.0000
  O   O427      1.0  0.71770  0.26545  0.71042  1.0000
  H   H375      1.0  0.52702  0.93540  0.61672  1.0000
  H   H376      1.0  0.77066  0.67247  0.50893  1.0000
  O   O428      1.0  0.04287  0.69556  0.60492  1.0000
  H   H377      1.0  0.42825  0.44032  0.67487  1.0000
  H   H378      1.0  0.35450  0.52136  0.68620  1.0000
  O   O429      1.0  0.41936  0.49945  0.68376  1.0000
  H   H379      1.0  0.76760  0.99415  0.83800  1.0000
  H   H380      1.0  0.66384  0.03931  0.83675  1.0000
  O   O430      1.0  0.54942  0.90099  0.04141  1.0000
  H   H381      1.0  0.52593  0.97112  0.66745  1.0000
  H   H382      1.0  0.56068  0.96885  0.69765  1.0000
  O   O431      1.0  0.50755  0.98413  0.68753  1.0000
  H   H383      1.0  0.61262  0.81015  0.77824  1.0000
  H   H384      1.0  0.64214  0.74620  0.75247  1.0000
  O   O432      1.0  0.65176  0.80668  0.76224  1.0000
  H   H385      1.0  0.78591  0.85437  0.63886  1.0000
  H   H386      1.0  0.78892  0.86001  0.60494  1.0000
  O   O433      1.0  0.82204  0.83775  0.62173  1.0000
  H   H387      1.0  0.37406  0.65444  0.62380  1.0000
  H   H388      1.0  0.38715  0.62304  0.65482  1.0000
  O   O434      1.0  0.39885  0.67100  0.64201  1.0000
  H   H389      1.0  0.35117  0.76939  0.52120  1.0000
  H   H390      1.0  0.30533  0.81247  0.49195  1.0000
  O   O435      1.0  0.30186  0.81179  0.51334  1.0000
  H   H391      1.0  0.93097  0.14483  0.47413  1.0000
  H   H392      1.0  0.86082  0.23110  0.46435  1.0000
  O   O436      1.0  0.87582  0.16296  0.46373  1.0000
  H   H393      1.0  0.25624  0.33075  0.06217  1.0000
  H   H394      1.0  0.19406  0.25883  0.06094  1.0000
  O   O437      1.0  0.19911  0.31539  0.07081  1.0000
  H   H395      1.0  0.31651  0.55817  0.49461  1.0000
  H   H396      1.0  0.31253  0.52865  0.52540  1.0000
  O   O438      1.0  0.35167  0.55063  0.51073  1.0000
  H   H397      1.0  0.14787  0.35109  0.49297  1.0000
  H   H398      1.0  0.06040  0.32046  0.50505  1.0000
  O   O439      1.0  0.12529  0.29492  0.49949  1.0000
  O   O440      1.0  0.24885  0.86055  0.59481  1.0000
  H   H399      1.0  0.30270  0.87434  0.58547  1.0000
  H   H400      1.0  0.20767  0.91317  0.58697  1.0000
  O   O441      1.0  0.60657  0.23832  0.57091  1.0000
  H   H401      1.0  0.66050  0.19139  0.57689  1.0000
  H   H402      1.0  0.52900  0.32321  0.41521  1.0000
  O   O442      1.0  0.43017  0.30091  0.42065  1.0000
  H   H403      1.0  0.46922  0.80345  0.87194  1.0000
  H   H404      1.0  0.53541  0.36494  0.50348  1.0000
  O   O443      1.0  0.72844  0.66242  0.00054  1.0000
  H   H405      1.0  0.68562  0.64732  0.01389  1.0000
  H   H406      1.0  0.77352  0.69453  0.01022  1.0000
  O   O444      1.0  0.57130  0.68393  0.63663  1.0000
  H   H407      1.0  0.50741  0.67773  0.63809  1.0000
  H   H408      1.0  0.61043  0.62560  0.62977  1.0000
  O   O445      1.0  0.79531  0.82972  0.92633  1.0000
  H   H409      1.0  0.81926  0.76062  0.92001  1.0000
  H   H410      1.0  0.75135  0.82295  0.94147  1.0000
  O   O446      1.0  0.59540  0.35899  0.74507  1.0000
  H   H411      1.0  0.62863  0.37372  0.76299  1.0000
  H   H412      1.0  0.55388  0.41964  0.73802  1.0000
  O   O447      1.0  0.01343  0.64077  0.86579  1.0000
  H   H413      1.0  0.02806  0.69972  0.85948  1.0000
  H   H414      1.0  0.00263  0.60994  0.84790  1.0000
  O   O448      1.0  0.15207  0.70064  0.90526  1.0000
  H   H415      1.0  0.19902  0.66651  0.89243  1.0000
  H   H416      1.0  0.10409  0.73827  0.89384  1.0000
  O   O449      1.0  0.00916  0.54412  0.81564  1.0000
  H   H417      1.0  0.98681  0.48354  0.81923  1.0000
  H   H418      1.0  0.96799  0.58739  0.80292  1.0000
  O   O450      1.0  0.06374  0.19425  0.71903  1.0000
  H   H419      1.0  0.50634  0.87233  0.43238  1.0000
  H   H420      1.0  0.06440  0.12647  0.71575  1.0000
  O   O451      1.0  0.43121  0.24512  0.57679  1.0000
  H   H421      1.0  0.41361  0.20500  0.56168  1.0000
  H   H422      1.0  0.49864  0.23885  0.57416  1.0000
  O   O452      1.0  0.49681  0.52467  0.72953  1.0000
  H   H423      1.0  0.45136  0.57553  0.73608  1.0000
  H   H424      1.0  0.48263  0.52209  0.71067  1.0000
  O   O453      1.0  0.80824  0.64423  0.61839  1.0000
  H   H425      1.0  0.82310  0.64159  0.63815  1.0000
  H   H426      1.0  0.81546  0.71454  0.61424  1.0000
  O   O454      1.0  0.28691  0.65617  0.45617  1.0000
  H   H427      1.0  0.32364  0.60872  0.44440  1.0000
  H   H428      1.0  0.30665  0.71485  0.45677  1.0000
  O   O455      1.0  0.01119  0.18000  0.97836  1.0000
  H   H429      1.0  0.05104  0.19464  0.96326  1.0000
  H   H430      1.0  0.95465  0.17661  0.96871  1.0000
  O   O456      1.0  0.30981  0.08267  0.85299  1.0000
  H   H431      1.0  0.28032  0.06793  0.86922  1.0000
  H   H432      1.0  0.26769  0.14074  0.84534  1.0000
  O   O457      1.0  0.36661  0.58087  0.96206  1.0000
  H   H433      1.0  0.33421  0.64390  0.96430  1.0000
  H   H434      1.0  0.32151  0.54212  0.95766  1.0000
  O   O458      1.0  0.73526  0.82934  0.57154  1.0000
  H   H435      1.0  0.73068  0.77485  0.55862  1.0000
  H   H436      1.0  0.72190  0.89262  0.56094  1.0000
  O   O459      1.0  0.36444  0.15296  0.53247  1.0000
  H   H437      1.0  0.31689  0.11294  0.52797  1.0000
  H   H438      1.0  0.36648  0.19877  0.51631  1.0000
  O   O460      1.0  0.95920  0.36891  0.51240  1.0000
  H   H439      1.0  0.94327  0.33307  0.52952  1.0000
  H   H440      1.0  0.94634  0.43703  0.51964  1.0000
  O   O461      1.0  0.26808  0.41087  0.90892  1.0000
  H   H441      1.0  0.28192  0.33755  0.90624  1.0000
  H   H442      1.0  0.21957  0.43518  0.89546  1.0000
  O   O462      1.0  0.85026  0.85708  0.46206  1.0000
  H   H443      1.0  0.81515  0.80828  0.45838  1.0000
  H   H444      1.0  0.82040  0.90883  0.47489  1.0000
  O   O463      1.0  0.01224  0.13463  0.54626  1.0000
  H   H445      1.0  0.17794  0.17181  0.44565  1.0000
  H   H446      1.0  0.00898  0.12475  0.52552  1.0000
  O   O464      1.0  0.75605  0.14449  0.60573  1.0000
  H   H447      1.0  0.80970  0.09681  0.59746  1.0000
  H   H448      1.0  0.78913  0.19354  0.61245  1.0000
  O   O465      1.0  0.13606  0.77833  0.00776  1.0000
  H   H449      1.0  0.12849  0.83559  0.01907  1.0000
  H   H450      1.0  0.15365  0.72530  0.02173  1.0000
  O   O466      1.0  0.31441  0.89958  0.82466  1.0000
  H   H451      1.0  0.31307  0.96821  0.83012  1.0000
  H   H452      1.0  0.77241  0.58397  0.48945  1.0000
