data_image0
_cell_length_a       12.991
_cell_length_b       11.836
_cell_length_c       71.4135
_cell_angle_alpha    90
_cell_angle_beta     90
_cell_angle_gamma    90

_symmetry_space_group_name_H-M    "P 1"
_symmetry_int_tables_number       1

loop_
  _symmetry_equiv_pos_as_xyz
  'x, y, z'

loop_
  _atom_site_label
  _atom_site_occupancy
  _atom_site_fract_x
  _atom_site_fract_y
  _atom_site_fract_z
  _atom_site_thermal_displace_type
  _atom_site_B_iso_or_equiv
  _atom_site_type_symbol
  O1       1.0000 0.33737  0.09111  0.02447  Biso   1.000  O 
  Ti1      1.0000 0.32929  0.22022  0.03976  Biso   1.000  Ti
  Ti2      1.0000 0.06958  0.10096  0.04103  Biso   1.000  Ti
  O2       1.0000 0.17379  0.23311  0.03839  Biso   1.000  O 
  O3       1.0000 0.97841  0.22465  0.04114  Biso   1.000  O 
  O4       1.0000 0.08570  0.10506  0.06793  Biso   1.000  O 
  O5       1.0000 0.82846  0.10005  0.06033  Biso   1.000  O 
  Ti3      1.0000 0.07278  0.21348  0.08637  Biso   1.000  Ti
  Ti4      1.0000 0.82947  0.09776  0.08618  Biso   1.000  Ti
  O6       1.0000 0.93010  0.22431  0.08713  Biso   1.000  O 
  O7       1.0000 0.23393  0.22717  0.08940  Biso   1.000  O 
  O8       1.0000 0.32647  0.09621  0.11536  Biso   1.000  O 
  O9       1.0000 0.07594  0.10319  0.10515  Biso   1.000  O 
  Ti5      1.0000 0.32500  0.22987  0.13124  Biso   1.000  Ti
  Ti6      1.0000 0.08427  0.10323  0.13450  Biso   1.000  Ti
  O10      1.0000 0.17979  0.22673  0.13217  Biso   1.000  O 
  O11      1.0000 0.98358  0.22379  0.13015  Biso   1.000  O 
  O12      1.0000 0.08144  0.09247  0.16000  Biso   1.000  O 
  O13      1.0000 0.82338  0.10285  0.15144  Biso   1.000  O 
  Ti7      1.0000 0.07031  0.23501  0.17862  Biso   1.000  Ti
  Ti8      1.0000 0.83071  0.10399  0.17827  Biso   1.000  Ti
  O14      1.0000 0.92983  0.22498  0.17902  Biso   1.000  O 
  O15      1.0000 0.23227  0.22965  0.17904  Biso   1.000  O 
  O16      1.0000 0.32508  0.10030  0.20959  Biso   1.000  O 
  O17      1.0000 0.08921  0.11192  0.19684  Biso   1.000  O 
  Ti9      1.0000 0.32439  0.22175  0.22546  Biso   1.000  Ti
  Ti10     1.0000 0.08652  0.11122  0.22705  Biso   1.000  Ti
  O18      1.0000 0.17644  0.23073  0.22551  Biso   1.000  O 
  O19      1.0000 0.98318  0.22621  0.22414  Biso   1.000  O 
  O20      1.0000 0.08564  0.09893  0.25550  Biso   1.000  O 
  O21      1.0000 0.84834  0.10934  0.24443  Biso   1.000  O 
  Ti11     1.0000 0.08487  0.24147  0.27490  Biso   1.000  Ti
  Ti12     1.0000 0.33632  0.10001  0.27147  Biso   1.000  Ti
  O22      1.0000 0.93193  0.23107  0.27647  Biso   1.000  O 
  O23      1.0000 0.23826  0.23299  0.27464  Biso   1.000  O 
  O24      1.0000 0.81324  0.10213  0.30058  Biso   1.000  O 
  O25      1.0000 0.08408  0.10078  0.29101  Biso   1.000  O 
  Ti13     1.0000 0.32850  0.22812  0.31634  Biso   1.000  Ti
  Ti14     1.0000 0.08185  0.09353  0.31993  Biso   1.000  Ti
  O26      1.0000 0.16856  0.22938  0.31764  Biso   1.000  O 
  O27      1.0000 0.97476  0.22467  0.31775  Biso   1.000  O 
  O28      1.0000 0.07961  0.10235  0.34610  Biso   1.000  O 
  O29      1.0000 0.32944  0.09088  0.33755  Biso   1.000  O 
  Ti15     1.0000 0.07733  0.21871  0.36723  Biso   1.000  Ti
  Ti16     1.0000 0.82571  0.10853  0.36285  Biso   1.000  Ti
  O30      1.0000 0.92537  0.22305  0.36544  Biso   1.000  O 
  O31      1.0000 0.21726  0.22749  0.36561  Biso   1.000  O 
  O32      1.0000 0.81577  0.09178  0.39309  Biso   1.000  O 
  O33      1.0000 0.07629  0.09532  0.38278  Biso   1.000  O 
  Ti17     1.0000 0.81575  0.23342  0.41017  Biso   1.000  Ti
  Ti18     1.0000 0.05789  0.10530  0.41473  Biso   1.000  Ti
  O34      1.0000 0.16201  0.22236  0.41225  Biso   1.000  O 
  O35      1.0000 0.96655  0.22725  0.41050  Biso   1.000  O 
  O36      1.0000 0.07716  0.10280  0.44028  Biso   1.000  O 
  O37      1.0000 0.82587  0.10434  0.42815  Biso   1.000  O 
  Ti19     1.0000 0.08789  0.21969  0.45980  Biso   1.000  Ti
  Ti20     1.0000 0.83654  0.10715  0.45719  Biso   1.000  Ti
  O38      1.0000 0.92649  0.23307  0.45811  Biso   1.000  O 
  O39      1.0000 0.22460  0.23132  0.45903  Biso   1.000  O 
  O40      1.0000 0.32758  0.10815  0.48710  Biso   1.000  O 
  O41      1.0000 0.07273  0.11149  0.47618  Biso   1.000  O 
  Ti21     1.0000 0.31881  0.23406  0.50422  Biso   1.000  Ti
  Ti22     1.0000 0.06931  0.11656  0.50396  Biso   1.000  Ti
  O42      1.0000 0.16427  0.23932  0.50498  Biso   1.000  O 
  O43      1.0000 0.97061  0.24146  0.50370  Biso   1.000  O 
  O44      1.0000 0.05611  0.11472  0.53162  Biso   1.000  O 
  O45      1.0000 0.31533  0.10354  0.52120  Biso   1.000  O 
  Ti23     1.0000 0.05883  0.23116  0.54897  Biso   1.000  Ti
  Ti24     1.0000 0.30468  0.10941  0.55138  Biso   1.000  Ti
  O46      1.0000 0.90967  0.22732  0.55124  Biso   1.000  O 
  O47      1.0000 0.20865  0.22233  0.54630  Biso   1.000  O 
  O48      1.0000 0.81266  0.10349  0.57904  Biso   1.000  O 
  O49      1.0000 0.05799  0.10510  0.56880  Biso   1.000  O 
  Ti25     1.0000 0.81988  0.22171  0.59621  Biso   1.000  Ti
  Ti26     1.0000 0.06183  0.09437  0.59549  Biso   1.000  Ti
  O50      1.0000 0.16103  0.22469  0.59735  Biso   1.000  O 
  O51      1.0000 0.96737  0.23742  0.59839  Biso   1.000  O 
  O52      1.0000 0.80254  0.11086  0.61444  Biso   1.000  O 
  O53      1.0000 0.32272  0.34757  0.02418  Biso   1.000  O 
  Ti27     1.0000 0.32795  0.47594  0.03844  Biso   1.000  Ti
  Ti28     1.0000 0.08246  0.34997  0.04333  Biso   1.000  Ti
  O54      1.0000 0.17225  0.47311  0.04010  Biso   1.000  O 
  O55      1.0000 0.97790  0.46961  0.04161  Biso   1.000  O 
  O56      1.0000 0.08779  0.34540  0.06993  Biso   1.000  O 
  O57      1.0000 0.83600  0.35693  0.06114  Biso   1.000  O 
  Ti29     1.0000 0.07874  0.47118  0.08882  Biso   1.000  Ti
  Ti30     1.0000 0.82735  0.35286  0.08735  Biso   1.000  Ti
  O58      1.0000 0.92559  0.47438  0.08712  Biso   1.000  O 
  O59      1.0000 0.22983  0.48369  0.08678  Biso   1.000  O 
  O60      1.0000 0.32530  0.35758  0.11597  Biso   1.000  O 
  O61      1.0000 0.07818  0.34867  0.10534  Biso   1.000  O 
  Ti31     1.0000 0.33478  0.47848  0.13247  Biso   1.000  Ti
  Ti32     1.0000 0.07679  0.36019  0.13415  Biso   1.000  Ti
  O62      1.0000 0.17649  0.47502  0.13413  Biso   1.000  O 
  O63      1.0000 0.97856  0.47732  0.13533  Biso   1.000  O 
  O64      1.0000 0.07275  0.35616  0.16222  Biso   1.000  O 
  O65      1.0000 0.83514  0.35734  0.15066  Biso   1.000  O 
  Ti33     1.0000 0.07853  0.48284  0.18135  Biso   1.000  Ti
  Ti34     1.0000 0.82021  0.36595  0.17782  Biso   1.000  Ti
  O66      1.0000 0.92944  0.47708  0.17828  Biso   1.000  O 
  O67      1.0000 0.23070  0.47274  0.18072  Biso   1.000  O 
  O68      1.0000 0.33702  0.35354  0.20928  Biso   1.000  O 
  O69      1.0000 0.09111  0.35364  0.19822  Biso   1.000  O 
  Ti35     1.0000 0.32380  0.46895  0.22911  Biso   1.000  Ti
  Ti36     1.0000 0.06977  0.35760  0.22503  Biso   1.000  Ti
  O70      1.0000 0.17791  0.47497  0.22605  Biso   1.000  O 
  O71      1.0000 0.98921  0.48270  0.22454  Biso   1.000  O 
  O72      1.0000 0.08428  0.34935  0.25458  Biso   1.000  O 
  O73      1.0000 0.84049  0.35536  0.24360  Biso   1.000  O 
  Ti37     1.0000 0.07376  0.47895  0.27217  Biso   1.000  Ti
  Ti38     1.0000 0.33243  0.35408  0.27209  Biso   1.000  Ti
  O74      1.0000 0.92626  0.47011  0.27232  Biso   1.000  O 
  O75      1.0000 0.23642  0.48481  0.27426  Biso   1.000  O 
  O76      1.0000 0.82263  0.35051  0.30069  Biso   1.000  O 
  O77      1.0000 0.09213  0.35817  0.29091  Biso   1.000  O 
  Ti39     1.0000 0.32179  0.47968  0.31991  Biso   1.000  Ti
  Ti40     1.0000 0.07720  0.34278  0.32230  Biso   1.000  Ti
  O78      1.0000 0.17100  0.48010  0.31941  Biso   1.000  O 
  O79      1.0000 0.97670  0.47714  0.31712  Biso   1.000  O 
  O80      1.0000 0.07663  0.36382  0.34855  Biso   1.000  O 
  O81      1.0000 0.32395  0.35238  0.33664  Biso   1.000  O 
  Ti41     1.0000 0.06802  0.47977  0.36698  Biso   1.000  Ti
  Ti42     1.0000 0.82542  0.35086  0.36490  Biso   1.000  Ti
  O82      1.0000 0.92174  0.47330  0.36544  Biso   1.000  O 
  O83      1.0000 0.22393  0.48019  0.36551  Biso   1.000  O 
  O84      1.0000 0.82550  0.35442  0.39288  Biso   1.000  O 
  O85      1.0000 0.07554  0.34787  0.38395  Biso   1.000  O 
  Ti43     1.0000 0.80793  0.47854  0.41168  Biso   1.000  Ti
  Ti44     1.0000 0.07847  0.36518  0.41325  Biso   1.000  Ti
  O86      1.0000 0.17919  0.48575  0.41233  Biso   1.000  O 
  O87      1.0000 0.97976  0.47794  0.41066  Biso   1.000  O 
  O88      1.0000 0.08481  0.35451  0.43971  Biso   1.000  O 
  O89      1.0000 0.82176  0.35109  0.42880  Biso   1.000  O 
  Ti45     1.0000 0.07463  0.47275  0.45721  Biso   1.000  Ti
  Ti46     1.0000 0.83364  0.35942  0.45746  Biso   1.000  Ti
  O90      1.0000 0.92339  0.48235  0.45757  Biso   1.000  O 
  O91      1.0000 0.21974  0.48174  0.45750  Biso   1.000  O 
  O92      1.0000 0.32996  0.35914  0.48647  Biso   1.000  O 
  O93      1.0000 0.06575  0.34817  0.47501  Biso   1.000  O 
  Ti47     1.0000 0.31622  0.47592  0.50635  Biso   1.000  Ti
  Ti48     1.0000 0.06569  0.36057  0.50307  Biso   1.000  Ti
  O94      1.0000 0.16856  0.48376  0.50503  Biso   1.000  O 
  O95      1.0000 0.97035  0.48387  0.50586  Biso   1.000  O 
  O96      1.0000 0.06174  0.35981  0.53165  Biso   1.000  O 
  O97      1.0000 0.32793  0.35248  0.52204  Biso   1.000  O 
  Ti49     1.0000 0.06455  0.47851  0.54942  Biso   1.000  Ti
  Ti50     1.0000 0.31079  0.35461  0.55094  Biso   1.000  Ti
  O98      1.0000 0.91286  0.47750  0.55050  Biso   1.000  O 
  O99      1.0000 0.20896  0.47129  0.55005  Biso   1.000  O 
  O100     1.0000 0.80411  0.35246  0.57854  Biso   1.000  O 
  O101     1.0000 0.06032  0.36120  0.56777  Biso   1.000  O 
  Ti51     1.0000 0.81639  0.47778  0.59548  Biso   1.000  Ti
  Ti52     1.0000 0.06931  0.34837  0.59430  Biso   1.000  Ti
  O102     1.0000 0.16563  0.47779  0.59607  Biso   1.000  O 
  O103     1.0000 0.96353  0.47683  0.59718  Biso   1.000  O 
  O104     1.0000 0.81101  0.35337  0.61508  Biso   1.000  O 
  O105     1.0000 0.32724  0.59630  0.02151  Biso   1.000  O 
  Ti53     1.0000 0.32625  0.71938  0.03821  Biso   1.000  Ti
  Ti54     1.0000 0.08113  0.60242  0.04263  Biso   1.000  Ti
  O106     1.0000 0.16850  0.72286  0.03808  Biso   1.000  O 
  O107     1.0000 0.97808  0.72761  0.04076  Biso   1.000  O 
  O108     1.0000 0.07239  0.60401  0.06919  Biso   1.000  O 
  O109     1.0000 0.83096  0.59551  0.05803  Biso   1.000  O 
  Ti55     1.0000 0.08120  0.72545  0.08920  Biso   1.000  Ti
  Ti56     1.0000 0.83455  0.59864  0.08394  Biso   1.000  Ti
  O110     1.0000 0.91786  0.71957  0.08845  Biso   1.000  O 
  O111     1.0000 0.22589  0.73357  0.08735  Biso   1.000  O 
  O112     1.0000 0.33281  0.60254  0.11540  Biso   1.000  O 
  O113     1.0000 0.07769  0.59767  0.10549  Biso   1.000  O 
  Ti57     1.0000 0.34698  0.72922  0.13592  Biso   1.000  Ti
  Ti58     1.0000 0.08821  0.60330  0.13602  Biso   1.000  Ti
  O114     1.0000 0.18585  0.72738  0.13381  Biso   1.000  O 
  O115     1.0000 0.98469  0.72563  0.13440  Biso   1.000  O 
  O116     1.0000 0.07394  0.61272  0.16276  Biso   1.000  O 
  O117     1.0000 0.83778  0.60168  0.15269  Biso   1.000  O 
  Ti59     1.0000 0.08724  0.74098  0.18125  Biso   1.000  Ti
  Ti60     1.0000 0.83163  0.61563  0.17879  Biso   1.000  Ti
  O118     1.0000 0.91928  0.73144  0.18150  Biso   1.000  O 
  O119     1.0000 0.23321  0.73160  0.18100  Biso   1.000  O 
  O120     1.0000 0.32340  0.60466  0.20939  Biso   1.000  O 
  O121     1.0000 0.08173  0.61106  0.19765  Biso   1.000  O 
  Ti61     1.0000 0.33268  0.72029  0.22861  Biso   1.000  Ti
  Ti62     1.0000 0.08191  0.61429  0.22764  Biso   1.000  Ti
  O122     1.0000 0.17840  0.74031  0.22719  Biso   1.000  O 
  O123     1.0000 0.98770  0.73266  0.22580  Biso   1.000  O 
  O124     1.0000 0.08290  0.59936  0.25359  Biso   1.000  O 
  O125     1.0000 0.82617  0.59921  0.24490  Biso   1.000  O 
  Ti63     1.0000 0.07899  0.73587  0.27330  Biso   1.000  Ti
  Ti64     1.0000 0.31887  0.60863  0.27545  Biso   1.000  Ti
  O126     1.0000 0.92990  0.72014  0.27153  Biso   1.000  O 
  O127     1.0000 0.22501  0.73195  0.27024  Biso   1.000  O 
  O128     1.0000 0.81786  0.60509  0.30205  Biso   1.000  O 
  O129     1.0000 0.07286  0.60241  0.29054  Biso   1.000  O 
  Ti65     1.0000 0.33287  0.73197  0.32064  Biso   1.000  Ti
  Ti66     1.0000 0.07895  0.60048  0.31650  Biso   1.000  Ti
  O130     1.0000 0.17605  0.72493  0.32006  Biso   1.000  O 
  O131     1.0000 0.97821  0.71709  0.31921  Biso   1.000  O 
  O132     1.0000 0.07263  0.60434  0.34851  Biso   1.000  O 
  O133     1.0000 0.33507  0.60338  0.33872  Biso   1.000  O 
  Ti67     1.0000 0.08397  0.72578  0.36315  Biso   1.000  Ti
  Ti68     1.0000 0.82758  0.60578  0.36701  Biso   1.000  Ti
  O134     1.0000 0.92211  0.72444  0.36640  Biso   1.000  O 
  O135     1.0000 0.22682  0.73213  0.36233  Biso   1.000  O 
  O136     1.0000 0.83398  0.60228  0.39257  Biso   1.000  O 
  O137     1.0000 0.06816  0.60538  0.38477  Biso   1.000  O 
  Ti69     1.0000 0.82253  0.73003  0.41288  Biso   1.000  Ti
  Ti70     1.0000 0.06865  0.60692  0.41245  Biso   1.000  Ti
  O138     1.0000 0.17083  0.73245  0.41152  Biso   1.000  O 
  O139     1.0000 0.97317  0.72013  0.41017  Biso   1.000  O 
  O140     1.0000 0.07208  0.61010  0.44030  Biso   1.000  O 
  O141     1.0000 0.81846  0.59375  0.42981  Biso   1.000  O 
  Ti71     1.0000 0.06805  0.71868  0.45832  Biso   1.000  Ti
  Ti72     1.0000 0.81757  0.60289  0.45762  Biso   1.000  Ti
  O142     1.0000 0.91577  0.72063  0.45769  Biso   1.000  O 
  O143     1.0000 0.22610  0.74376  0.45738  Biso   1.000  O 
  O144     1.0000 0.31455  0.59641  0.48599  Biso   1.000  O 
  O145     1.0000 0.07299  0.59379  0.47607  Biso   1.000  O 
  Ti73     1.0000 0.33068  0.73459  0.50577  Biso   1.000  Ti
  Ti74     1.0000 0.06203  0.61658  0.50262  Biso   1.000  Ti
  O146     1.0000 0.16648  0.72510  0.50489  Biso   1.000  O 
  O147     1.0000 0.96687  0.73347  0.50331  Biso   1.000  O 
  O148     1.0000 0.06826  0.60455  0.53287  Biso   1.000  O 
  O149     1.0000 0.31964  0.60769  0.52250  Biso   1.000  O 
  Ti75     1.0000 0.06993  0.73082  0.54818  Biso   1.000  Ti
  Ti76     1.0000 0.31632  0.60867  0.55258  Biso   1.000  Ti
  O150     1.0000 0.91712  0.73426  0.54910  Biso   1.000  O 
  O151     1.0000 0.21997  0.73213  0.54944  Biso   1.000  O 
  O152     1.0000 0.81246  0.60299  0.57709  Biso   1.000  O 
  O153     1.0000 0.06580  0.60541  0.56968  Biso   1.000  O 
  Ti77     1.0000 0.81917  0.71947  0.60047  Biso   1.000  Ti
  Ti78     1.0000 0.06374  0.58804  0.59469  Biso   1.000  Ti
  O154     1.0000 0.16722  0.72685  0.59845  Biso   1.000  O 
  O155     1.0000 0.97613  0.72832  0.59926  Biso   1.000  O 
  O156     1.0000 0.81245  0.59548  0.61384  Biso   1.000  O 
  O157     1.0000 0.33907  0.84554  0.02251  Biso   1.000  O 
  Ti79     1.0000 0.32360  0.97447  0.03927  Biso   1.000  Ti
  Ti80     1.0000 0.07124  0.85142  0.04279  Biso   1.000  Ti
  O158     1.0000 0.17691  0.96032  0.03931  Biso   1.000  O 
  O159     1.0000 0.97998  0.98053  0.04001  Biso   1.000  O 
  O160     1.0000 0.08108  0.85679  0.06939  Biso   1.000  O 
  O161     1.0000 0.82544  0.85084  0.05812  Biso   1.000  O 
  Ti81     1.0000 0.07440  0.96900  0.08955  Biso   1.000  Ti
  Ti82     1.0000 0.82015  0.84650  0.08542  Biso   1.000  Ti
  O162     1.0000 0.92167  0.96961  0.08853  Biso   1.000  O 
  O163     1.0000 0.22945  0.96312  0.08883  Biso   1.000  O 
  O164     1.0000 0.34262  0.84735  0.11639  Biso   1.000  O 
  O165     1.0000 0.07146  0.85389  0.10564  Biso   1.000  O 
  Ti83     1.0000 0.33513  0.96883  0.13127  Biso   1.000  Ti
  Ti84     1.0000 0.09047  0.85053  0.13585  Biso   1.000  Ti
  O166     1.0000 0.17462  0.97289  0.13245  Biso   1.000  O 
  O167     1.0000 0.98081  0.97124  0.13346  Biso   1.000  O 
  O168     1.0000 0.08559  0.85507  0.16259  Biso   1.000  O 
  O169     1.0000 0.84261  0.85207  0.15279  Biso   1.000  O 
  Ti85     1.0000 0.08688  0.98605  0.18218  Biso   1.000  Ti
  Ti86     1.0000 0.83464  0.86159  0.17800  Biso   1.000  Ti
  O170     1.0000 0.92777  0.98550  0.17913  Biso   1.000  O 
  O171     1.0000 0.23394  0.97678  0.17977  Biso   1.000  O 
  O172     1.0000 0.32611  0.86044  0.20666  Biso   1.000  O 
  O173     1.0000 0.08586  0.86089  0.19776  Biso   1.000  O 
  Ti87     1.0000 0.32590  0.97149  0.22580  Biso   1.000  Ti
  Ti88     1.0000 0.07971  0.85941  0.22686  Biso   1.000  Ti
  O174     1.0000 0.18212  0.97869  0.22782  Biso   1.000  O 
  O175     1.0000 0.99275  0.98102  0.22692  Biso   1.000  O 
  O176     1.0000 0.07375  0.84962  0.25465  Biso   1.000  O 
  O177     1.0000 0.83474  0.84928  0.24570  Biso   1.000  O 
  Ti89     1.0000 0.08617  0.98523  0.27293  Biso   1.000  Ti
  Ti90     1.0000 0.32932  0.85343  0.27242  Biso   1.000  Ti
  O178     1.0000 0.92764  0.97716  0.27466  Biso   1.000  O 
  O179     1.0000 0.23349  0.97797  0.27202  Biso   1.000  O 
  O180     1.0000 0.82930  0.84517  0.30227  Biso   1.000  O 
  O181     1.0000 0.06884  0.84906  0.28977  Biso   1.000  O 
  Ti91     1.0000 0.32039  0.97264  0.31807  Biso   1.000  Ti
  Ti92     1.0000 0.06651  0.84411  0.31877  Biso   1.000  Ti
  O182     1.0000 0.17084  0.96606  0.32036  Biso   1.000  O 
  O183     1.0000 0.97584  0.97783  0.31855  Biso   1.000  O 
  O184     1.0000 0.06248  0.85420  0.34787  Biso   1.000  O 
  O185     1.0000 0.32163  0.85091  0.33746  Biso   1.000  O 
  Ti93     1.0000 0.06732  0.97414  0.36643  Biso   1.000  Ti
  Ti94     1.0000 0.82764  0.84922  0.36540  Biso   1.000  Ti
  O186     1.0000 0.91882  0.97452  0.36684  Biso   1.000  O 
  O187     1.0000 0.22667  0.98119  0.36636  Biso   1.000  O 
  O188     1.0000 0.81964  0.84814  0.39351  Biso   1.000  O 
  O189     1.0000 0.07827  0.85340  0.38329  Biso   1.000  O 
  Ti95     1.0000 0.82132  0.98065  0.41032  Biso   1.000  Ti
  Ti96     1.0000 0.07898  0.85432  0.41051  Biso   1.000  Ti
  O190     1.0000 0.17295  0.97902  0.41171  Biso   1.000  O 
  O191     1.0000 0.97099  0.97402  0.41222  Biso   1.000  O 
  O192     1.0000 0.06785  0.85119  0.43988  Biso   1.000  O 
  O193     1.0000 0.83066  0.84717  0.42988  Biso   1.000  O 
  Ti97     1.0000 0.07580  0.96261  0.45759  Biso   1.000  Ti
  Ti98     1.0000 0.80776  0.84812  0.45735  Biso   1.000  Ti
  O194     1.0000 0.92914  0.98778  0.45632  Biso   1.000  O 
  O195     1.0000 0.22626  0.98768  0.45842  Biso   1.000  O 
  O196     1.0000 0.32851  0.85644  0.48597  Biso   1.000  O 
  O197     1.0000 0.07783  0.85333  0.47623  Biso   1.000  O 
  Ti99     1.0000 0.32633  0.98536  0.50558  Biso   1.000  Ti
  Ti100    1.0000 0.08606  0.86356  0.50349  Biso   1.000  Ti
  O198     1.0000 0.16979  0.98641  0.50181  Biso   1.000  O 
  O199     1.0000 0.97153  0.98098  0.50190  Biso   1.000  O 
  O200     1.0000 0.06665  0.85745  0.53146  Biso   1.000  O 
  O201     1.0000 0.31161  0.85075  0.52145  Biso   1.000  O 
  Ti101    1.0000 0.06067  0.97878  0.55053  Biso   1.000  Ti
  Ti102    1.0000 0.31056  0.86264  0.55245  Biso   1.000  Ti
  O202     1.0000 0.90906  0.98324  0.55123  Biso   1.000  O 
  O203     1.0000 0.20484  0.98061  0.54813  Biso   1.000  O 
  O204     1.0000 0.82739  0.85805  0.57881  Biso   1.000  O 
  O205     1.0000 0.06418  0.85738  0.56823  Biso   1.000  O 
  Ti103    1.0000 0.81088  0.98092  0.59893  Biso   1.000  Ti
  Ti104    1.0000 0.06458  0.84403  0.59482  Biso   1.000  Ti
  O206     1.0000 0.16553  0.97665  0.59876  Biso   1.000  O 
  O207     1.0000 0.97109  0.97420  0.59817  Biso   1.000  O 
  O208     1.0000 0.80409  0.85618  0.61484  Biso   1.000  O 
  O209     1.0000 0.84132  0.09207  0.02472  Biso   1.000  O 
  Ti105    1.0000 0.82957  0.20666  0.04049  Biso   1.000  Ti
  Ti106    1.0000 0.57453  0.09779  0.04499  Biso   1.000  Ti
  O210     1.0000 0.67186  0.21890  0.04135  Biso   1.000  O 
  O211     1.0000 0.47886  0.21772  0.04049  Biso   1.000  O 
  O212     1.0000 0.58736  0.08734  0.07044  Biso   1.000  O 
  O213     1.0000 0.32385  0.09722  0.06027  Biso   1.000  O 
  Ti107    1.0000 0.57309  0.23448  0.08818  Biso   1.000  Ti
  Ti108    1.0000 0.32364  0.11073  0.08625  Biso   1.000  Ti
  O214     1.0000 0.43301  0.21898  0.08717  Biso   1.000  O 
  O215     1.0000 0.72895  0.22423  0.08682  Biso   1.000  O 
  O216     1.0000 0.82540  0.10289  0.11567  Biso   1.000  O 
  O217     1.0000 0.58595  0.10859  0.10776  Biso   1.000  O 
  Ti109    1.0000 0.83301  0.22095  0.13247  Biso   1.000  Ti
  Ti110    1.0000 0.57012  0.10616  0.13388  Biso   1.000  Ti
  O218     1.0000 0.68090  0.22925  0.13405  Biso   1.000  O 
  O219     1.0000 0.48502  0.22272  0.13654  Biso   1.000  O 
  O220     1.0000 0.58630  0.10642  0.16255  Biso   1.000  O 
  O221     1.0000 0.33643  0.10162  0.15183  Biso   1.000  O 
  Ti111    1.0000 0.58812  0.22984  0.18160  Biso   1.000  Ti
  Ti112    1.0000 0.33265  0.11060  0.17678  Biso   1.000  Ti
  O222     1.0000 0.42924  0.23968  0.18003  Biso   1.000  O 
  O223     1.0000 0.72977  0.23593  0.18040  Biso   1.000  O 
  O224     1.0000 0.83173  0.10786  0.20736  Biso   1.000  O 
  O225     1.0000 0.59160  0.10110  0.19944  Biso   1.000  O 
  Ti113    1.0000 0.83440  0.23798  0.22567  Biso   1.000  Ti
  Ti114    1.0000 0.57422  0.09761  0.22528  Biso   1.000  Ti
  O226     1.0000 0.68340  0.22824  0.22657  Biso   1.000  O 
  O227     1.0000 0.48463  0.22070  0.22855  Biso   1.000  O 
  O228     1.0000 0.58568  0.11215  0.25483  Biso   1.000  O 
  O229     1.0000 0.32945  0.10650  0.24509  Biso   1.000  O 
  Ti115    1.0000 0.58807  0.22946  0.27296  Biso   1.000  Ti
  Ti116    1.0000 0.84189  0.10478  0.27244  Biso   1.000  Ti
  O230     1.0000 0.42665  0.23189  0.27347  Biso   1.000  O 
  O231     1.0000 0.73688  0.22915  0.27024  Biso   1.000  O 
  O232     1.0000 0.33975  0.09678  0.30149  Biso   1.000  O 
  O233     1.0000 0.59157  0.10651  0.29014  Biso   1.000  O 
  Ti117    1.0000 0.82857  0.22198  0.31728  Biso   1.000  Ti
  Ti118    1.0000 0.58120  0.10094  0.31911  Biso   1.000  Ti
  O234     1.0000 0.67855  0.23184  0.32200  Biso   1.000  O 
  O235     1.0000 0.47396  0.22416  0.32039  Biso   1.000  O 
  O236     1.0000 0.57044  0.09974  0.34724  Biso   1.000  O 
  O237     1.0000 0.83296  0.10351  0.33593  Biso   1.000  O 
  Ti119    1.0000 0.55723  0.22722  0.36607  Biso   1.000  Ti
  Ti120    1.0000 0.31262  0.10432  0.36457  Biso   1.000  Ti
  O238     1.0000 0.42039  0.22785  0.36389  Biso   1.000  O 
  O239     1.0000 0.73152  0.22332  0.36505  Biso   1.000  O 
  O240     1.0000 0.32339  0.11246  0.39316  Biso   1.000  O 
  O241     1.0000 0.56704  0.10466  0.38208  Biso   1.000  O 
  Ti121    1.0000 0.30873  0.22598  0.41056  Biso   1.000  Ti
  Ti122    1.0000 0.57515  0.11165  0.40868  Biso   1.000  Ti
  O242     1.0000 0.66689  0.22938  0.40959  Biso   1.000  O 
  O243     1.0000 0.47249  0.23263  0.40957  Biso   1.000  O 
  O244     1.0000 0.56871  0.10471  0.43854  Biso   1.000  O 
  O245     1.0000 0.32014  0.10192  0.42815  Biso   1.000  O 
  Ti123    1.0000 0.58287  0.23192  0.45434  Biso   1.000  Ti
  Ti124    1.0000 0.34009  0.11059  0.45666  Biso   1.000  Ti
  O246     1.0000 0.42031  0.24118  0.45604  Biso   1.000  O 
  O247     1.0000 0.72658  0.23186  0.45553  Biso   1.000  O 
  O248     1.0000 0.81924  0.11186  0.48466  Biso   1.000  O 
  O249     1.0000 0.57601  0.10637  0.47370  Biso   1.000  O 
  Ti125    1.0000 0.81086  0.23986  0.50296  Biso   1.000  Ti
  Ti126    1.0000 0.56733  0.10705  0.50162  Biso   1.000  Ti
  O250     1.0000 0.66391  0.22959  0.50333  Biso   1.000  O 
  O251     1.0000 0.47044  0.22827  0.50043  Biso   1.000  O 
  O252     1.0000 0.56701  0.10843  0.53029  Biso   1.000  O 
  O253     1.0000 0.82853  0.10403  0.52245  Biso   1.000  O 
  Ti127    1.0000 0.56382  0.23081  0.54680  Biso   1.000  Ti
  Ti128    1.0000 0.81047  0.10028  0.55021  Biso   1.000  Ti
  O254     1.0000 0.40334  0.22984  0.54987  Biso   1.000  O 
  O255     1.0000 0.71891  0.22772  0.55127  Biso   1.000  O 
  O256     1.0000 0.31443  0.10069  0.57733  Biso   1.000  O 
  O257     1.0000 0.56357  0.10630  0.56597  Biso   1.000  O 
  Ti129    1.0000 0.31911  0.22772  0.59784  Biso   1.000  Ti
  Ti130    1.0000 0.55777  0.10827  0.59083  Biso   1.000  Ti
  O258     1.0000 0.66033  0.22685  0.59330  Biso   1.000  O 
  O259     1.0000 0.47569  0.23118  0.59548  Biso   1.000  O 
  O260     1.0000 0.32872  0.10712  0.61252  Biso   1.000  O 
  O261     1.0000 0.82721  0.33360  0.02383  Biso   1.000  O 
  Ti131    1.0000 0.83109  0.45740  0.03887  Biso   1.000  Ti
  Ti132    1.0000 0.57877  0.34291  0.04419  Biso   1.000  Ti
  O262     1.0000 0.67335  0.46297  0.04235  Biso   1.000  O 
  O263     1.0000 0.48012  0.45635  0.03906  Biso   1.000  O 
  O264     1.0000 0.57785  0.35378  0.07090  Biso   1.000  O 
  O265     1.0000 0.32358  0.34537  0.05974  Biso   1.000  O 
  Ti133    1.0000 0.57662  0.48667  0.08971  Biso   1.000  Ti
  Ti134    1.0000 0.32327  0.35802  0.08421  Biso   1.000  Ti
  O266     1.0000 0.42278  0.47537  0.08785  Biso   1.000  O 
  O267     1.0000 0.73035  0.48156  0.08752  Biso   1.000  O 
  O268     1.0000 0.82053  0.34705  0.11599  Biso   1.000  O 
  O269     1.0000 0.57640  0.34725  0.10643  Biso   1.000  O 
  Ti135    1.0000 0.83253  0.47065  0.13183  Biso   1.000  Ti
  Ti136    1.0000 0.58617  0.35003  0.13519  Biso   1.000  Ti
  O270     1.0000 0.67801  0.48515  0.13508  Biso   1.000  O 
  O271     1.0000 0.48453  0.47513  0.13380  Biso   1.000  O 
  O272     1.0000 0.57416  0.35332  0.16271  Biso   1.000  O 
  O273     1.0000 0.32921  0.34126  0.15122  Biso   1.000  O 
  Ti137    1.0000 0.57406  0.47297  0.18275  Biso   1.000  Ti
  Ti138    1.0000 0.32760  0.35300  0.17744  Biso   1.000  Ti
  O274     1.0000 0.42867  0.47712  0.18071  Biso   1.000  O 
  O275     1.0000 0.73269  0.48291  0.18189  Biso   1.000  O 
  O276     1.0000 0.83960  0.36194  0.20727  Biso   1.000  O 
  O277     1.0000 0.57475  0.35174  0.19891  Biso   1.000  O 
  Ti139    1.0000 0.83251  0.48733  0.22616  Biso   1.000  Ti
  Ti140    1.0000 0.58561  0.34112  0.22844  Biso   1.000  Ti
  O278     1.0000 0.67605  0.48042  0.22585  Biso   1.000  O 
  O279     1.0000 0.48290  0.48096  0.22888  Biso   1.000  O 
  O280     1.0000 0.57685  0.35929  0.25585  Biso   1.000  O 
  O281     1.0000 0.33043  0.34910  0.24591  Biso   1.000  O 
  Ti141    1.0000 0.57916  0.47976  0.27359  Biso   1.000  Ti
  Ti142    1.0000 0.82643  0.35508  0.27094  Biso   1.000  Ti
  O282     1.0000 0.42259  0.48629  0.27149  Biso   1.000  O 
  O283     1.0000 0.73628  0.47567  0.27457  Biso   1.000  O 
  O284     1.0000 0.33358  0.35391  0.30176  Biso   1.000  O 
  O285     1.0000 0.57824  0.34871  0.29100  Biso   1.000  O 
  Ti143    1.0000 0.83234  0.46893  0.31896  Biso   1.000  Ti
  Ti144    1.0000 0.58050  0.34543  0.31928  Biso   1.000  Ti
  O286     1.0000 0.67830  0.46822  0.31967  Biso   1.000  O 
  O287     1.0000 0.48215  0.48159  0.31952  Biso   1.000  O 
  O288     1.0000 0.56574  0.35064  0.34717  Biso   1.000  O 
  O289     1.0000 0.82848  0.35365  0.33695  Biso   1.000  O 
  Ti145    1.0000 0.57511  0.47780  0.36344  Biso   1.000  Ti
  Ti146    1.0000 0.32221  0.36253  0.36443  Biso   1.000  Ti
  O290     1.0000 0.42163  0.48375  0.36526  Biso   1.000  O 
  O291     1.0000 0.72444  0.48349  0.36442  Biso   1.000  O 
  O292     1.0000 0.32735  0.35397  0.39293  Biso   1.000  O 
  O293     1.0000 0.56840  0.35682  0.38176  Biso   1.000  O 
  Ti147    1.0000 0.32523  0.49106  0.41025  Biso   1.000  Ti
  Ti148    1.0000 0.55537  0.35598  0.41102  Biso   1.000  Ti
  O294     1.0000 0.66569  0.47586  0.41161  Biso   1.000  O 
  O295     1.0000 0.47394  0.49098  0.41288  Biso   1.000  O 
  O296     1.0000 0.56431  0.36363  0.43816  Biso   1.000  O 
  O297     1.0000 0.31470  0.35330  0.42917  Biso   1.000  O 
  Ti149    1.0000 0.56804  0.48667  0.45764  Biso   1.000  Ti
  Ti150    1.0000 0.31350  0.36006  0.45481  Biso   1.000  Ti
  O298     1.0000 0.41794  0.48374  0.45855  Biso   1.000  O 
  O299     1.0000 0.72780  0.47345  0.45703  Biso   1.000  O 
  O300     1.0000 0.81518  0.36415  0.48693  Biso   1.000  O 
  O301     1.0000 0.56554  0.35531  0.47404  Biso   1.000  O 
  Ti151    1.0000 0.81580  0.48232  0.50361  Biso   1.000  Ti
  Ti152    1.0000 0.56280  0.35643  0.49986  Biso   1.000  Ti
  O302     1.0000 0.66601  0.47969  0.50378  Biso   1.000  O 
  O303     1.0000 0.47512  0.48043  0.50226  Biso   1.000  O 
  O304     1.0000 0.56656  0.35547  0.53012  Biso   1.000  O 
  O305     1.0000 0.82248  0.34941  0.52101  Biso   1.000  O 
  Ti153    1.0000 0.56924  0.47992  0.54711  Biso   1.000  Ti
  Ti154    1.0000 0.81253  0.35063  0.55207  Biso   1.000  Ti
  O306     1.0000 0.40656  0.48613  0.54877  Biso   1.000  O 
  O307     1.0000 0.71457  0.48560  0.54914  Biso   1.000  O 
  O308     1.0000 0.31798  0.36010  0.57769  Biso   1.000  O 
  O309     1.0000 0.56249  0.35796  0.56525  Biso   1.000  O 
  Ti155    1.0000 0.32252  0.46565  0.59699  Biso   1.000  Ti
  Ti156    1.0000 0.57685  0.34871  0.59209  Biso   1.000  Ti
  O310     1.0000 0.66973  0.47644  0.59533  Biso   1.000  O 
  O311     1.0000 0.47519  0.46991  0.59644  Biso   1.000  O 
  O312     1.0000 0.32877  0.34345  0.61368  Biso   1.000  O 
  O313     1.0000 0.82604  0.58996  0.02202  Biso   1.000  O 
  Ti157    1.0000 0.82536  0.70429  0.03815  Biso   1.000  Ti
  Ti158    1.0000 0.57336  0.59104  0.04360  Biso   1.000  Ti
  O314     1.0000 0.67279  0.70925  0.03860  Biso   1.000  O 
  O315     1.0000 0.47890  0.71504  0.04155  Biso   1.000  O 
  O316     1.0000 0.57234  0.59954  0.06988  Biso   1.000  O 
  O317     1.0000 0.32727  0.60025  0.05830  Biso   1.000  O 
  Ti159    1.0000 0.57250  0.73367  0.08912  Biso   1.000  Ti
  Ti160    1.0000 0.33054  0.60956  0.08558  Biso   1.000  Ti
  O318     1.0000 0.42387  0.72776  0.08546  Biso   1.000  O 
  O319     1.0000 0.72640  0.72706  0.08642  Biso   1.000  O 
  O320     1.0000 0.83148  0.59993  0.11623  Biso   1.000  O 
  O321     1.0000 0.58611  0.60785  0.10610  Biso   1.000  O 
  Ti161    1.0000 0.83039  0.71687  0.13291  Biso   1.000  Ti
  Ti162    1.0000 0.57781  0.59740  0.13850  Biso   1.000  Ti
  O322     1.0000 0.67805  0.72101  0.13575  Biso   1.000  O 
  O323     1.0000 0.48725  0.73189  0.13666  Biso   1.000  O 
  O324     1.0000 0.58086  0.59873  0.16439  Biso   1.000  O 
  O325     1.0000 0.33701  0.60738  0.15234  Biso   1.000  O 
  Ti163    1.0000 0.58107  0.72979  0.18372  Biso   1.000  Ti
  Ti164    1.0000 0.33590  0.59898  0.18190  Biso   1.000  Ti
  O326     1.0000 0.42964  0.72264  0.18251  Biso   1.000  O 
  O327     1.0000 0.72642  0.73339  0.17990  Biso   1.000  O 
  O328     1.0000 0.83026  0.61195  0.20834  Biso   1.000  O 
  O329     1.0000 0.57815  0.60432  0.19867  Biso   1.000  O 
  Ti165    1.0000 0.83304  0.74257  0.22415  Biso   1.000  Ti
  Ti166    1.0000 0.57536  0.59518  0.22888  Biso   1.000  Ti
  O330     1.0000 0.67975  0.73324  0.22660  Biso   1.000  O 
  O331     1.0000 0.48241  0.72427  0.22864  Biso   1.000  O 
  O332     1.0000 0.58349  0.59623  0.25544  Biso   1.000  O 
  O333     1.0000 0.32353  0.60670  0.24484  Biso   1.000  O 
  Ti167    1.0000 0.57787  0.73273  0.27297  Biso   1.000  Ti
  Ti168    1.0000 0.82410  0.60450  0.27260  Biso   1.000  Ti
  O334     1.0000 0.43193  0.73606  0.27270  Biso   1.000  O 
  O335     1.0000 0.73092  0.72794  0.27125  Biso   1.000  O 
  O336     1.0000 0.32394  0.60553  0.30128  Biso   1.000  O 
  O337     1.0000 0.57468  0.60040  0.29057  Biso   1.000  O 
  Ti169    1.0000 0.82103  0.71554  0.32085  Biso   1.000  Ti
  Ti170    1.0000 0.58043  0.59201  0.31851  Biso   1.000  Ti
  O338     1.0000 0.67769  0.72686  0.31889  Biso   1.000  O 
  O339     1.0000 0.48263  0.72513  0.31899  Biso   1.000  O 
  O340     1.0000 0.57046  0.61263  0.34754  Biso   1.000  O 
  O341     1.0000 0.82678  0.60187  0.33844  Biso   1.000  O 
  Ti171    1.0000 0.57229  0.72290  0.36684  Biso   1.000  Ti
  Ti172    1.0000 0.32495  0.61495  0.36520  Biso   1.000  Ti
  O342     1.0000 0.42032  0.73618  0.36492  Biso   1.000  O 
  O343     1.0000 0.71832  0.73853  0.36637  Biso   1.000  O 
  O344     1.0000 0.32921  0.60099  0.39334  Biso   1.000  O 
  O345     1.0000 0.56541  0.60128  0.38449  Biso   1.000  O 
  Ti173    1.0000 0.33073  0.72715  0.41338  Biso   1.000  Ti
  Ti174    1.0000 0.57429  0.60685  0.41254  Biso   1.000  Ti
  O346     1.0000 0.67681  0.72244  0.41225  Biso   1.000  O 
  O347     1.0000 0.47047  0.72113  0.41053  Biso   1.000  O 
  O348     1.0000 0.57189  0.61135  0.43955  Biso   1.000  O 
  O349     1.0000 0.32282  0.60537  0.42925  Biso   1.000  O 
  Ti175    1.0000 0.56575  0.73494  0.45727  Biso   1.000  Ti
  Ti176    1.0000 0.31645  0.60932  0.46054  Biso   1.000  Ti
  O350     1.0000 0.42099  0.73218  0.45824  Biso   1.000  O 
  O351     1.0000 0.71772  0.72868  0.45652  Biso   1.000  O 
  O352     1.0000 0.80098  0.60463  0.48595  Biso   1.000  O 
  O353     1.0000 0.56723  0.60399  0.47521  Biso   1.000  O 
  Ti177    1.0000 0.81527  0.74247  0.50327  Biso   1.000  Ti
  Ti178    1.0000 0.57476  0.60073  0.50445  Biso   1.000  Ti
  O354     1.0000 0.66499  0.72906  0.50433  Biso   1.000  O 
  O355     1.0000 0.47204  0.73868  0.50228  Biso   1.000  O 
  O356     1.0000 0.57134  0.61214  0.53151  Biso   1.000  O 
  O357     1.0000 0.81018  0.60826  0.52084  Biso   1.000  O 
  Ti179    1.0000 0.56882  0.73594  0.55210  Biso   1.000  Ti
  Ti180    1.0000 0.82024  0.60592  0.54890  Biso   1.000  Ti
  O358     1.0000 0.41444  0.73643  0.55085  Biso   1.000  O 
  O359     1.0000 0.71907  0.74128  0.54846  Biso   1.000  O 
  O360     1.0000 0.30608  0.59999  0.57743  Biso   1.000  O 
  O361     1.0000 0.56575  0.59942  0.56706  Biso   1.000  O 
  Ti181    1.0000 0.31544  0.71739  0.59843  Biso   1.000  Ti
  Ti182    1.0000 0.56240  0.60150  0.59326  Biso   1.000  Ti
  O362     1.0000 0.66131  0.72907  0.59432  Biso   1.000  O 
  O363     1.0000 0.47278  0.72389  0.59410  Biso   1.000  O 
  O364     1.0000 0.32488  0.60111  0.61272  Biso   1.000  O 
  O365     1.0000 0.83313  0.85094  0.02135  Biso   1.000  O 
  Ti183    1.0000 0.82171  0.95681  0.03967  Biso   1.000  Ti
  Ti184    1.0000 0.57547  0.84754  0.04359  Biso   1.000  Ti
  O366     1.0000 0.67115  0.97526  0.04101  Biso   1.000  O 
  O367     1.0000 0.48400  0.97330  0.04086  Biso   1.000  O 
  O368     1.0000 0.58315  0.85352  0.07025  Biso   1.000  O 
  O369     1.0000 0.33180  0.84803  0.05914  Biso   1.000  O 
  Ti185    1.0000 0.57484  0.97712  0.09068  Biso   1.000  Ti
  Ti186    1.0000 0.32843  0.86075  0.08497  Biso   1.000  Ti
  O370     1.0000 0.42812  0.98966  0.09003  Biso   1.000  O 
  O371     1.0000 0.72909  0.96753  0.08819  Biso   1.000  O 
  O372     1.0000 0.83214  0.84666  0.11675  Biso   1.000  O 
  O373     1.0000 0.57217  0.84880  0.10654  Biso   1.000  O 
  Ti187    1.0000 0.83786  0.96672  0.13377  Biso   1.000  Ti
  Ti188    1.0000 0.59453  0.85533  0.13597  Biso   1.000  Ti
  O374     1.0000 0.67796  0.97544  0.13302  Biso   1.000  O 
  O375     1.0000 0.48407  0.97207  0.13255  Biso   1.000  O 
  O376     1.0000 0.57874  0.85855  0.16263  Biso   1.000  O 
  O377     1.0000 0.34160  0.85169  0.15303  Biso   1.000  O 
  Ti189    1.0000 0.57315  0.98130  0.18017  Biso   1.000  Ti
  Ti190    1.0000 0.32911  0.84804  0.18013  Biso   1.000  Ti
  O378     1.0000 0.43080  0.99003  0.18175  Biso   1.000  O 
  O379     1.0000 0.73704  0.97992  0.17846  Biso   1.000  O 
  O380     1.0000 0.82950  0.86585  0.20894  Biso   1.000  O 
  O381     1.0000 0.58399  0.85637  0.19948  Biso   1.000  O 
  Ti191    1.0000 0.83190  0.99620  0.22603  Biso   1.000  Ti
  Ti192    1.0000 0.58565  0.84926  0.22660  Biso   1.000  Ti
  O382     1.0000 0.68482  0.98280  0.22827  Biso   1.000  O 
  O383     1.0000 0.48328  0.98376  0.22709  Biso   1.000  O 
  O384     1.0000 0.58905  0.85523  0.25429  Biso   1.000  O 
  O385     1.0000 0.33794  0.85589  0.24424  Biso   1.000  O 
  Ti193    1.0000 0.58743  0.98981  0.27014  Biso   1.000  Ti
  Ti194    1.0000 0.83379  0.84836  0.27177  Biso   1.000  Ti
  O386     1.0000 0.42247  0.97707  0.27424  Biso   1.000  O 
  O387     1.0000 0.74029  0.98064  0.27193  Biso   1.000  O 
  O388     1.0000 0.32735  0.84583  0.30149  Biso   1.000  O 
  O389     1.0000 0.57879  0.85515  0.29076  Biso   1.000  O 
  Ti195    1.0000 0.82698  0.95949  0.31796  Biso   1.000  Ti
  Ti196    1.0000 0.56843  0.85392  0.31825  Biso   1.000  Ti
  O390     1.0000 0.67653  0.97917  0.32064  Biso   1.000  O 
  O391     1.0000 0.47993  0.98981  0.31862  Biso   1.000  O 
  O392     1.0000 0.57294  0.85623  0.34605  Biso   1.000  O 
  O393     1.0000 0.82991  0.85531  0.33820  Biso   1.000  O 
  Ti197    1.0000 0.58280  0.97103  0.36240  Biso   1.000  Ti
  Ti198    1.0000 0.33713  0.86925  0.36831  Biso   1.000  Ti
  O394     1.0000 0.41966  0.99249  0.36588  Biso   1.000  O 
  O395     1.0000 0.73143  0.97693  0.36541  Biso   1.000  O 
  O396     1.0000 0.31455  0.84767  0.39425  Biso   1.000  O 
  O397     1.0000 0.56978  0.85664  0.38227  Biso   1.000  O 
  Ti199    1.0000 0.32541  0.97669  0.41160  Biso   1.000  Ti
  Ti200    1.0000 0.57161  0.85923  0.41001  Biso   1.000  Ti
  O398     1.0000 0.67295  0.97998  0.41043  Biso   1.000  O 
  O399     1.0000 0.47456  0.97625  0.40838  Biso   1.000  O 
  O400     1.0000 0.57503  0.85954  0.43885  Biso   1.000  O 
  O401     1.0000 0.32810  0.85209  0.42891  Biso   1.000  O 
  Ti201    1.0000 0.58019  0.98802  0.45619  Biso   1.000  Ti
  Ti202    1.0000 0.31689  0.86183  0.46041  Biso   1.000  Ti
  O402     1.0000 0.42375  0.98553  0.45773  Biso   1.000  O 
  O403     1.0000 0.72829  0.98396  0.45587  Biso   1.000  O 
  O404     1.0000 0.80966  0.86326  0.48396  Biso   1.000  O 
  O405     1.0000 0.57509  0.85719  0.47543  Biso   1.000  O 
  Ti203    1.0000 0.82636  0.99020  0.50428  Biso   1.000  Ti
  Ti204    1.0000 0.57455  0.85429  0.50278  Biso   1.000  Ti
  O406     1.0000 0.66393  0.97948  0.50209  Biso   1.000  O 
  O407     1.0000 0.46986  0.99331  0.50463  Biso   1.000  O 
  O408     1.0000 0.57329  0.86316  0.53108  Biso   1.000  O 
  O409     1.0000 0.82309  0.85077  0.51966  Biso   1.000  O 
  Ti205    1.0000 0.56455  0.97941  0.54649  Biso   1.000  Ti
  Ti206    1.0000 0.81907  0.85018  0.55366  Biso   1.000  Ti
  O410     1.0000 0.41206  0.99010  0.54897  Biso   1.000  O 
  O411     1.0000 0.71431  0.97968  0.55019  Biso   1.000  O 
  O412     1.0000 0.30886  0.85629  0.57708  Biso   1.000  O 
  O413     1.0000 0.56598  0.86475  0.56661  Biso   1.000  O 
  Ti207    1.0000 0.31770  0.97768  0.59771  Biso   1.000  Ti
  Ti208    1.0000 0.57283  0.85449  0.59851  Biso   1.000  Ti
  O414     1.0000 0.65746  0.98289  0.59576  Biso   1.000  O 
  O415     1.0000 0.47388  0.98016  0.59814  Biso   1.000  O 
  O416     1.0000 0.32297  0.85541  0.61439  Biso   1.000  O 
  O417     1.0000 0.03314  0.51369  0.91800  Biso   1.000  O 
  H1       1.0000 0.02683  0.52599  0.93104  Biso   1.000  H 
  H2       1.0000 0.06527  0.58747  0.91279  Biso   1.000  H 
  O418     1.0000 0.07006  0.10771  0.62478  Biso   1.000  O 
  H3       1.0000 0.12745  0.12317  0.63323  Biso   1.000  H 
  H4       1.0000 0.00829  0.13279  0.63158  Biso   1.000  H 
  O419     1.0000 0.04990  0.35693  0.01392  Biso   1.000  O 
  H5       1.0000 0.09175  0.32925  0.00370  Biso   1.000  H 
  H6       1.0000 0.97765  0.33039  0.01446  Biso   1.000  H 
  O420     1.0000 0.09650  0.35760  0.62646  Biso   1.000  O 
  H7       1.0000 0.16114  0.31794  0.63027  Biso   1.000  H 
  H8       1.0000 0.03959  0.31299  0.63309  Biso   1.000  H 
  O421     1.0000 0.05769  0.59583  0.01134  Biso   1.000  O 
  H9       1.0000 0.04018  0.51532  0.01090  Biso   1.000  H 
  H10      1.0000 0.00284  0.63851  0.00507  Biso   1.000  H 
  O422     1.0000 0.06617  0.58920  0.62598  Biso   1.000  O 
  H11      1.0000 0.07573  0.67165  0.62853  Biso   1.000  H 
  H12      1.0000 0.12214  0.54684  0.63294  Biso   1.000  H 
  O423     1.0000 0.08460  0.87307  0.00810  Biso   1.000  O 
  H13      1.0000 0.14263  0.83356  0.00265  Biso   1.000  H 
  H14      1.0000 0.01677  0.83486  0.00343  Biso   1.000  H 
  O424     1.0000 0.08392  0.84972  0.63294  Biso   1.000  O 
  H15      1.0000 0.13592  0.90785  0.63352  Biso   1.000  H 
  H16      1.0000 0.02975  0.88558  0.64137  Biso   1.000  H 
  O425     1.0000 0.58094  0.08458  0.00894  Biso   1.000  O 
  H17      1.0000 0.64868  0.11837  0.00543  Biso   1.000  H 
  H18      1.0000 0.52655  0.12983  0.00046  Biso   1.000  H 
  O426     1.0000 0.58703  0.11849  0.62578  Biso   1.000  O 
  H19      1.0000 0.57367  0.27013  0.62680  Biso   1.000  H 
  H20      1.0000 0.66320  0.10049  0.62523  Biso   1.000  H 
  O427     1.0000 0.57148  0.35517  0.00910  Biso   1.000  O 
  H21      1.0000 0.61855  0.31294  0.00110  Biso   1.000  H 
  H22      1.0000 0.50051  0.33266  0.00479  Biso   1.000  H 
  O428     1.0000 0.41386  0.52763  0.69588  Biso   1.000  O 
  H23      1.0000 0.48162  0.54412  0.70220  Biso   1.000  H 
  H24      1.0000 0.41525  0.44713  0.69262  Biso   1.000  H 
  O429     1.0000 0.57634  0.57421  0.01426  Biso   1.000  O 
  H25      1.0000 0.62119  0.61815  0.00445  Biso   1.000  H 
  H26      1.0000 0.56211  0.50259  0.00883  Biso   1.000  H 
  O430     1.0000 0.56934  0.61281  0.62316  Biso   1.000  O 
  H27      1.0000 0.63101  0.58959  0.63058  Biso   1.000  H 
  H28      1.0000 0.50624  0.57277  0.63040  Biso   1.000  H 
  O431     1.0000 0.57916  0.84387  0.01099  Biso   1.000  O 
  H29      1.0000 0.64081  0.81146  0.00459  Biso   1.000  H 
  H30      1.0000 0.57886  0.92548  0.00611  Biso   1.000  H 
  O432     1.0000 0.91074  0.56924  0.65081  Biso   1.000  O 
  H31      1.0000 0.95332  0.58193  0.63950  Biso   1.000  H 
  H32      1.0000 0.93521  0.49673  0.65604  Biso   1.000  H 
  H33      1.0000 0.89250  0.78233  0.95125  Biso   1.000  H 
  H34      1.0000 0.00948  0.74348  0.95279  Biso   1.000  H 
  O433     1.0000 0.94036  0.73707  0.95845  Biso   1.000  O 
  H35      1.0000 0.19279  0.72920  0.82847  Biso   1.000  H 
  H36      1.0000 0.19515  0.60813  0.82117  Biso   1.000  H 
  O434     1.0000 0.23792  0.67701  0.82103  Biso   1.000  O 
  H37      1.0000 0.18695  0.66576  0.99415  Biso   1.000  H 
  H38      1.0000 0.28633  0.72961  0.98878  Biso   1.000  H 
  O435     1.0000 0.21269  0.72674  0.98690  Biso   1.000  O 
  H39      1.0000 0.86084  0.91701  0.65347  Biso   1.000  H 
  H40      1.0000 0.93458  0.96356  0.66801  Biso   1.000  H 
  O436     1.0000 0.92507  0.89655  0.65985  Biso   1.000  O 
  H41      1.0000 0.70946  0.57986  0.87783  Biso   1.000  H 
  H42      1.0000 0.65604  0.53288  0.86032  Biso   1.000  H 
  O437     1.0000 0.69053  0.60275  0.86498  Biso   1.000  O 
  H43      1.0000 0.78539  0.11453  0.88825  Biso   1.000  H 
  H44      1.0000 0.82193  0.24408  0.88950  Biso   1.000  H 
  O438     1.0000 0.75861  0.19055  0.88889  Biso   1.000  O 
  H45      1.0000 0.05574  0.20891  0.96855  Biso   1.000  H 
  H46      1.0000 0.98484  0.11527  0.97771  Biso   1.000  H 
  O439     1.0000 0.03729  0.12447  0.96809  Biso   1.000  O 
  H47      1.0000 0.25441  0.17968  0.75753  Biso   1.000  H 
  H48      1.0000 0.25617  0.27943  0.77368  Biso   1.000  H 
  O440     1.0000 0.21148  0.22697  0.76577  Biso   1.000  O 
  H49      1.0000 0.32234  0.37294  0.79627  Biso   1.000  H 
  H50      1.0000 0.33036  0.43626  0.77629  Biso   1.000  H 
  O441     1.0000 0.33389  0.36442  0.78259  Biso   1.000  O 
  H51      1.0000 0.46292  0.76457  0.99805  Biso   1.000  H 
  H52      1.0000 0.41452  0.64165  0.99567  Biso   1.000  H 
  O442     1.0000 0.41334  0.71701  0.99051  Biso   1.000  O 
  H53      1.0000 0.20061  0.12523  0.82766  Biso   1.000  H 
  H54      1.0000 0.10572  0.12397  0.81541  Biso   1.000  H 
  O443     1.0000 0.12698  0.12713  0.82850  Biso   1.000  O 
  H55      1.0000 0.82408  0.91215  0.87269  Biso   1.000  H 
  H56      1.0000 0.75553  0.87155  0.89016  Biso   1.000  H 
  O444     1.0000 0.80371  0.93100  0.88586  Biso   1.000  O 
  H57      1.0000 0.92138  0.39021  0.68312  Biso   1.000  H 
  H58      1.0000 0.04820  0.38989  0.67918  Biso   1.000  H 
  O445     1.0000 0.97722  0.38016  0.67376  Biso   1.000  O 
  H59      1.0000 0.78025  0.62037  0.75279  Biso   1.000  H 
  H60      1.0000 0.66850  0.67394  0.75418  Biso   1.000  H 
  O446     1.0000 0.72571  0.63753  0.76140  Biso   1.000  O 
  H61      1.0000 0.30899  0.83848  0.84702  Biso   1.000  H 
  H62      1.0000 0.24082  0.75490  0.86100  Biso   1.000  H 
  O447     1.0000 0.24531  0.83326  0.85371  Biso   1.000  O 
  H63      1.0000 0.55193  0.43459  0.81007  Biso   1.000  H 
  H64      1.0000 0.45901  0.44866  0.82214  Biso   1.000  H 
  O448     1.0000 0.53227  0.47901  0.82077  Biso   1.000  O 
  H65      1.0000 0.92324  0.57157  0.80914  Biso   1.000  H 
  H66      1.0000 0.96434  0.70288  0.81262  Biso   1.000  H 
  O449     1.0000 0.91089  0.64873  0.81412  Biso   1.000  O 
  H67      1.0000 0.53935  0.83682  0.70963  Biso   1.000  H 
  H68      1.0000 0.43799  0.87664  0.70239  Biso   1.000  H 
  O450     1.0000 0.47163  0.84433  0.71349  Biso   1.000  O 
  H69      1.0000 0.34222  0.10653  0.87290  Biso   1.000  H 
  H70      1.0000 0.47430  0.08772  0.87201  Biso   1.000  H 
  O451     1.0000 0.41230  0.13799  0.86915  Biso   1.000  O 
  H71      1.0000 0.49846  0.66368  0.75539  Biso   1.000  H 
  H72      1.0000 0.52479  0.79191  0.74836  Biso   1.000  H 
  O452     1.0000 0.55009  0.71050  0.74833  Biso   1.000  O 
  H73      1.0000 0.12756  0.17165  0.78265  Biso   1.000  H 
  H74      1.0000 0.04586  0.07339  0.78497  Biso   1.000  H 
  O453     1.0000 0.07568  0.14001  0.79142  Biso   1.000  O 
  H75      1.0000 0.88785  0.64430  0.83653  Biso   1.000  H 
  H76      1.0000 0.82138  0.61020  0.85496  Biso   1.000  H 
  O454     1.0000 0.89335  0.63073  0.85093  Biso   1.000  O 
  H77      1.0000 0.36357  0.91657  0.99666  Biso   1.000  H 
  H78      1.0000 0.32636  0.97030  0.97809  Biso   1.000  H 
  O455     1.0000 0.37655  0.97951  0.98837  Biso   1.000  O 
  H79      1.0000 0.71409  0.82185  0.98277  Biso   1.000  H 
  H80      1.0000 0.66702  0.91987  0.96931  Biso   1.000  H 
  O456     1.0000 0.72861  0.89198  0.97583  Biso   1.000  O 
  H81      1.0000 0.43196  0.03197  0.69079  Biso   1.000  H 
  H82      1.0000 0.42242  0.95328  0.67290  Biso   1.000  H 
  O457     1.0000 0.39745  0.96056  0.68584  Biso   1.000  O 
  H83      1.0000 0.32361  0.80706  0.63781  Biso   1.000  H 
  H84      1.0000 0.23859  0.76909  0.64941  Biso   1.000  H 
  O458     1.0000 0.30425  0.80789  0.65095  Biso   1.000  O 
  H85      1.0000 0.77794  0.60357  0.64737  Biso   1.000  H 
  H86      1.0000 0.70815  0.51248  0.65922  Biso   1.000  H 
  O459     1.0000 0.70968  0.58612  0.65195  Biso   1.000  O 
  H87      1.0000 0.41869  0.78197  0.93407  Biso   1.000  H 
  H88      1.0000 0.34453  0.86439  0.92162  Biso   1.000  H 
  O460     1.0000 0.37428  0.78508  0.92237  Biso   1.000  O 
  H89      1.0000 0.68567  0.79876  0.69277  Biso   1.000  H 
  H90      1.0000 0.76320  0.80654  0.70967  Biso   1.000  H 
  O461     1.0000 0.70065  0.83764  0.70521  Biso   1.000  O 
  H91      1.0000 0.90646  0.37587  0.79634  Biso   1.000  H 
  H92      1.0000 0.85332  0.39408  0.81605  Biso   1.000  H 
  O462     1.0000 0.90012  0.43401  0.80657  Biso   1.000  O 
  H93      1.0000 0.88545  0.47683  0.73299  Biso   1.000  H 
  H94      1.0000 0.85175  0.59991  0.72030  Biso   1.000  H 
  O463     1.0000 0.82405  0.52176  0.72548  Biso   1.000  O 
  H95      1.0000 0.09744  0.53547  0.85931  Biso   1.000  H 
  H96      1.0000 0.97680  0.54932  0.85616  Biso   1.000  H 
  O464     1.0000 0.03615  0.48833  0.85773  Biso   1.000  O 
  H97      1.0000 0.56809  0.71747  0.67250  Biso   1.000  H 
  H98      1.0000 0.67411  0.67935  0.66987  Biso   1.000  H 
  O465     1.0000 0.63718  0.74265  0.67543  Biso   1.000  O 
  H99      1.0000 0.40925  0.27812  0.87344  Biso   1.000  H 
  H100     1.0000 0.48181  0.38201  0.86889  Biso   1.000  H 
  O466     1.0000 0.42576  0.35635  0.87720  Biso   1.000  O 
  H101     1.0000 0.57074  0.61658  0.72620  Biso   1.000  H 
  H102     1.0000 0.65380  0.55531  0.71364  Biso   1.000  H 
  O467     1.0000 0.58497  0.54554  0.71876  Biso   1.000  O 
  H103     1.0000 0.13303  0.13302  0.00650  Biso   1.000  H 
  H104     1.0000 0.08572  0.01078  0.00699  Biso   1.000  H 
  O468     1.0000 0.06972  0.09147  0.01105  Biso   1.000  O 
  H105     1.0000 0.27046  0.01306  0.90486  Biso   1.000  H 
  H106     1.0000 0.33236  0.04904  0.92597  Biso   1.000  H 
  O469     1.0000 0.28158  0.99929  0.91879  Biso   1.000  O 
  H107     1.0000 0.71472  0.21237  0.86636  Biso   1.000  H 
  H108     1.0000 0.73485  0.24122  0.84544  Biso   1.000  H 
  O470     1.0000 0.68045  0.21067  0.85398  Biso   1.000  O 
  H109     1.0000 0.72756  0.37855  0.68467  Biso   1.000  H 
  H110     1.0000 0.69278  0.28888  0.66821  Biso   1.000  H 
  O471     1.0000 0.67015  0.36438  0.67353  Biso   1.000  O 
  H111     1.0000 0.38337  0.74627  0.72937  Biso   1.000  H 
  H112     1.0000 0.29800  0.66473  0.72681  Biso   1.000  H 
  O472     1.0000 0.32422  0.72019  0.73556  Biso   1.000  O 
  H113     1.0000 0.08621  0.46262  0.81254  Biso   1.000  H 
  H114     1.0000 0.09196  0.46181  0.83433  Biso   1.000  H 
  O473     1.0000 0.13272  0.47218  0.82256  Biso   1.000  O 
  H115     1.0000 0.15474  0.96293  0.67486  Biso   1.000  H 
  H116     1.0000 0.26079  0.93058  0.68472  Biso   1.000  H 
  O474     1.0000 0.18325  0.93008  0.68639  Biso   1.000  O 
  H117     1.0000 0.92960  0.06367  0.94989  Biso   1.000  H 
  H118     1.0000 0.91529  0.04004  0.92818  Biso   1.000  H 
  O475     1.0000 0.87644  0.06355  0.94050  Biso   1.000  O 
  H119     1.0000 0.41527  0.63872  0.67850  Biso   1.000  H 
  H120     1.0000 0.40372  0.71497  0.65951  Biso   1.000  H 
  O476     1.0000 0.44683  0.66040  0.66621  Biso   1.000  O 
  H121     1.0000 0.17951  0.06625  0.87986  Biso   1.000  H 
  H122     1.0000 0.23782  0.95026  0.87214  Biso   1.000  H 
  O477     1.0000 0.24505  0.02176  0.87926  Biso   1.000  O 
  H123     1.0000 0.27328  0.63823  0.87999  Biso   1.000  H 
  H124     1.0000 0.16128  0.67214  0.88478  Biso   1.000  H 
  O478     1.0000 0.20555  0.66416  0.87333  Biso   1.000  O 
  H125     1.0000 0.56082  0.07017  0.63594  Biso   1.000  H 
  H126     1.0000 0.41661  0.99306  0.64149  Biso   1.000  H 
  O479     1.0000 0.48274  0.98953  0.64805  Biso   1.000  O 
  H127     1.0000 0.73123  0.11128  0.65456  Biso   1.000  H 
  H128     1.0000 0.82934  0.17792  0.66044  Biso   1.000  H 
  O480     1.0000 0.75843  0.15439  0.66515  Biso   1.000  O 
  H129     1.0000 0.64962  0.51602  0.96384  Biso   1.000  H 
  H130     1.0000 0.55915  0.60788  0.95892  Biso   1.000  H 
  O481     1.0000 0.60896  0.57945  0.96856  Biso   1.000  O 
  H131     1.0000 0.37278  0.50289  0.64103  Biso   1.000  H 
  H132     1.0000 0.45395  0.55093  0.65487  Biso   1.000  H 
  O482     1.0000 0.44389  0.49470  0.64411  Biso   1.000  O 
  H133     1.0000 0.76519  0.46514  0.90245  Biso   1.000  H 
  H134     1.0000 0.64358  0.45851  0.90152  Biso   1.000  H 
  O483     1.0000 0.70219  0.51105  0.90102  Biso   1.000  O 
  H135     1.0000 0.12003  0.41576  0.90176  Biso   1.000  H 
  H136     1.0000 0.18771  0.39113  0.88444  Biso   1.000  H 
  O484     1.0000 0.15937  0.35489  0.89579  Biso   1.000  O 
  H137     1.0000 0.54804  0.62348  0.81812  Biso   1.000  H 
  H138     1.0000 0.62849  0.71488  0.80981  Biso   1.000  H 
  O485     1.0000 0.55273  0.70547  0.81392  Biso   1.000  O 
  H139     1.0000 0.58404  0.36592  0.77567  Biso   1.000  H 
  H140     1.0000 0.47635  0.35722  0.78401  Biso   1.000  H 
  O486     1.0000 0.54683  0.35975  0.78722  Biso   1.000  O 
  H141     1.0000 0.69548  0.12777  0.80968  Biso   1.000  H 
  H142     1.0000 0.73623  0.02874  0.82262  Biso   1.000  H 
  O487     1.0000 0.76219  0.09217  0.81427  Biso   1.000  O 
  H143     1.0000 0.74396  0.29825  0.93891  Biso   1.000  H 
  H144     1.0000 0.79492  0.18852  0.93541  Biso   1.000  H 
  O488     1.0000 0.75085  0.24131  0.92878  Biso   1.000  O 
  H145     1.0000 0.48724  0.37167  0.89624  Biso   1.000  H 
  H146     1.0000 0.55248  0.30781  0.90881  Biso   1.000  H 
  O489     1.0000 0.53639  0.38705  0.90641  Biso   1.000  O 
  H147     1.0000 0.33935  0.03113  0.74279  Biso   1.000  H 
  H148     1.0000 0.24353  0.02486  0.73020  Biso   1.000  H 
  O490     1.0000 0.29394  0.08362  0.73484  Biso   1.000  O 
  H149     1.0000 0.71949  0.80156  0.93455  Biso   1.000  H 
  H150     1.0000 0.78874  0.91033  0.93977  Biso   1.000  H 
  O491     1.0000 0.79141  0.83396  0.93548  Biso   1.000  O 
  H151     1.0000 0.93358  0.75648  0.97975  Biso   1.000  H 
  H152     1.0000 0.88084  0.78839  0.00039  Biso   1.000  H 
  O492     1.0000 0.93361  0.74995  0.99366  Biso   1.000  O 
  H153     1.0000 0.18468  0.78111  0.68124  Biso   1.000  H 
  H154     1.0000 0.09816  0.68938  0.68087  Biso   1.000  H 
  O493     1.0000 0.17686  0.69922  0.68030  Biso   1.000  O 
  H155     1.0000 0.00800  0.14965  0.67518  Biso   1.000  H 
  H156     1.0000 0.03419  0.09222  0.69433  Biso   1.000  H 
  O494     1.0000 0.99597  0.08160  0.68306  Biso   1.000  O 
  H157     1.0000 0.69720  0.96789  0.69906  Biso   1.000  H 
  H158     1.0000 0.70528  0.08237  0.68652  Biso   1.000  H 
  O495     1.0000 0.69249  0.05592  0.69923  Biso   1.000  O 
  H159     1.0000 0.56139  0.77081  0.88067  Biso   1.000  H 
  H160     1.0000 0.64095  0.74850  0.86567  Biso   1.000  H 
  O496     1.0000 0.60630  0.81335  0.87162  Biso   1.000  O 
  H161     1.0000 0.32029  0.66115  0.92177  Biso   1.000  H 
  H162     1.0000 0.31316  0.54138  0.91135  Biso   1.000  H 
  O497     1.0000 0.29790  0.57861  0.92327  Biso   1.000  O 
  H163     1.0000 0.26702  0.39648  0.82124  Biso   1.000  H 
  H164     1.0000 0.33175  0.29153  0.82549  Biso   1.000  H 
  O498     1.0000 0.33434  0.37208  0.82047  Biso   1.000  O 
  H165     1.0000 0.56650  0.69149  0.90397  Biso   1.000  H 
  H166     1.0000 0.45797  0.74587  0.90701  Biso   1.000  H 
  O499     1.0000 0.50322  0.70369  0.89735  Biso   1.000  O 
  H167     1.0000 0.29146  0.45598  0.96243  Biso   1.000  H 
  H168     1.0000 0.26051  0.47910  0.94103  Biso   1.000  H 
  O500     1.0000 0.23773  0.43489  0.95244  Biso   1.000  O 
  H169     1.0000 0.82555  0.29546  0.70544  Biso   1.000  H 
  H170     1.0000 0.82066  0.43133  0.70898  Biso   1.000  H 
  O501     1.0000 0.81770  0.37319  0.69888  Biso   1.000  O 
  H171     1.0000 0.01084  0.90746  0.78238  Biso   1.000  H 
  H172     1.0000 0.90826  0.97530  0.77784  Biso   1.000  H 
  O502     1.0000 0.98170  0.95284  0.77259  Biso   1.000  O 
  H173     1.0000 0.30642  0.56722  0.70616  Biso   1.000  H 
  H174     1.0000 0.21587  0.64068  0.70008  Biso   1.000  H 
  O503     1.0000 0.23382  0.58012  0.70964  Biso   1.000  O 
  H175     1.0000 0.48405  0.06023  0.80866  Biso   1.000  H 
  H176     1.0000 0.43199  0.95895  0.82028  Biso   1.000  H 
  O504     1.0000 0.42112  0.02288  0.81209  Biso   1.000  O 
  H177     1.0000 0.92986  0.16197  0.72288  Biso   1.000  H 
  H178     1.0000 0.81694  0.11534  0.71590  Biso   1.000  H 
  O505     1.0000 0.85196  0.17980  0.72215  Biso   1.000  O 
  H179     1.0000 0.45956  0.74689  0.96485  Biso   1.000  H 
  H180     1.0000 0.53388  0.80729  0.95182  Biso   1.000  H 
  O506     1.0000 0.48473  0.74491  0.95188  Biso   1.000  O 
  H181     1.0000 0.94070  0.44861  0.95590  Biso   1.000  H 
  H182     1.0000 0.92108  0.57294  0.95718  Biso   1.000  H 
  O507     1.0000 0.88766  0.50347  0.95313  Biso   1.000  O 
  H183     1.0000 0.49128  0.45396  0.92545  Biso   1.000  H 
  H184     1.0000 0.40642  0.53380  0.93235  Biso   1.000  H 
  O508     1.0000 0.48056  0.50725  0.93545  Biso   1.000  O 
  H185     1.0000 0.51556  0.92890  0.64092  Biso   1.000  H 
  H186     1.0000 0.55950  0.75818  0.62752  Biso   1.000  H 
  O509     1.0000 0.56479  0.84030  0.62416  Biso   1.000  O 
  H187     1.0000 0.23409  0.45628  0.65471  Biso   1.000  H 
  H188     1.0000 0.22392  0.58244  0.65957  Biso   1.000  H 
  O510     1.0000 0.19250  0.52380  0.65189  Biso   1.000  O 
  H189     1.0000 0.08463  0.37852  0.97811  Biso   1.000  H 
  H190     1.0000 0.11476  0.40020  0.95861  Biso   1.000  H 
  O511     1.0000 0.05642  0.36779  0.96586  Biso   1.000  O 
  H191     1.0000 0.88708  0.77601  0.85764  Biso   1.000  H 
  H192     1.0000 0.93792  0.89320  0.85055  Biso   1.000  H 
  O512     1.0000 0.87006  0.85517  0.85428  Biso   1.000  O 
  H193     1.0000 0.43395  0.74307  0.80019  Biso   1.000  H 
  H194     1.0000 0.32180  0.69877  0.80341  Biso   1.000  H 
  O513     1.0000 0.36916  0.72878  0.79411  Biso   1.000  O 
  H195     1.0000 0.95238  0.38108  0.75463  Biso   1.000  H 
  H196     1.0000 0.00867  0.48559  0.74904  Biso   1.000  H 
  O514     1.0000 0.97062  0.42736  0.74358  Biso   1.000  O 
  H197     1.0000 0.40800  0.62016  0.77859  Biso   1.000  H 
  H198     1.0000 0.35952  0.61487  0.75860  Biso   1.000  H 
  O515     1.0000 0.39868  0.57097  0.76730  Biso   1.000  O 
  H199     1.0000 0.57725  0.08847  0.78558  Biso   1.000  H 
  H200     1.0000 0.55852  0.21397  0.79392  Biso   1.000  H 
  O516     1.0000 0.57891  0.13314  0.79790  Biso   1.000  O 
  H201     1.0000 0.78112  0.18549  0.99044  Biso   1.000  H 
  H202     1.0000 0.78362  0.28188  0.00583  Biso   1.000  H 
  O517     1.0000 0.74205  0.25750  0.99411  Biso   1.000  O 
  H203     1.0000 0.95975  0.30431  0.65539  Biso   1.000  H 
  H204     1.0000 0.88388  0.30526  0.63587  Biso   1.000  H 
  O518     1.0000 0.93058  0.25662  0.64371  Biso   1.000  O 
  H205     1.0000 0.77374  0.87993  0.78634  Biso   1.000  H 
  H206     1.0000 0.77340  0.00550  0.79495  Biso   1.000  H 
  O519     1.0000 0.79414  0.95925  0.78404  Biso   1.000  O 
  H207     1.0000 0.76528  0.85371  0.84051  Biso   1.000  H 
  H208     1.0000 0.68297  0.80235  0.82567  Biso   1.000  H 
  O520     1.0000 0.71008  0.87290  0.83133  Biso   1.000  O 
  H209     1.0000 0.59967  0.12718  0.90078  Biso   1.000  H 
  H210     1.0000 0.65320  0.18621  0.91700  Biso   1.000  H 
  O521     1.0000 0.58243  0.16722  0.91304  Biso   1.000  O 
  H211     1.0000 0.07907  0.85176  0.73899  Biso   1.000  H 
  H212     1.0000 0.98173  0.85948  0.75225  Biso   1.000  H 
  O522     1.0000 0.00970  0.81604  0.74175  Biso   1.000  O 
  H213     1.0000 0.66231  0.11390  0.75882  Biso   1.000  H 
  H214     1.0000 0.68794  0.01211  0.77047  Biso   1.000  H 
  O523     1.0000 0.62808  0.05633  0.76674  Biso   1.000  O 
  H215     1.0000 0.37194  0.46578  0.88395  Biso   1.000  H 
  H216     1.0000 0.42398  0.57935  0.89304  Biso   1.000  H 
  O524     1.0000 0.35821  0.54275  0.88918  Biso   1.000  O 
  H217     1.0000 0.74115  0.71904  0.78343  Biso   1.000  H 
  H218     1.0000 0.79908  0.72964  0.80261  Biso   1.000  H 
  O525     1.0000 0.73932  0.75497  0.79548  Biso   1.000  O 
  H219     1.0000 0.60958  0.08210  0.86540  Biso   1.000  H 
  H220     1.0000 0.61966  0.95857  0.87441  Biso   1.000  H 
  O526     1.0000 0.59374  0.03800  0.87716  Biso   1.000  O 
  H221     1.0000 0.18316  0.31276  0.74194  Biso   1.000  H 
  H222     1.0000 0.08385  0.36345  0.73460  Biso   1.000  H 
  O527     1.0000 0.14618  0.33172  0.72934  Biso   1.000  O 
  H223     1.0000 0.26714  0.27500  0.95369  Biso   1.000  H 
  H224     1.0000 0.24038  0.14828  0.95950  Biso   1.000  H 
  O528     1.0000 0.29207  0.20734  0.96084  Biso   1.000  O 
  H225     1.0000 0.08145  0.01219  0.83932  Biso   1.000  H 
  H226     1.0000 0.12211  0.89338  0.84676  Biso   1.000  H 
  O529     1.0000 0.05961  0.93013  0.84006  Biso   1.000  O 
  H227     1.0000 0.14235  0.03985  0.96407  Biso   1.000  H 
  H228     1.0000 0.19244  0.95414  0.95289  Biso   1.000  H 
  O530     1.0000 0.21076  0.00879  0.96257  Biso   1.000  O 
  H229     1.0000 0.34983  0.00409  0.78680  Biso   1.000  H 
  H230     1.0000 0.32892  0.88663  0.78332  Biso   1.000  H 
  O531     1.0000 0.30922  0.96194  0.77773  Biso   1.000  O 
  H231     1.0000 0.16617  0.65888  0.94111  Biso   1.000  H 
  H232     1.0000 0.16974  0.67956  0.96237  Biso   1.000  H 
  O532     1.0000 0.11755  0.66534  0.95220  Biso   1.000  O 
  H233     1.0000 0.08887  0.20892  0.72567  Biso   1.000  H 
  H234     1.0000 0.08273  0.06981  0.72869  Biso   1.000  H 
  O533     1.0000 0.04700  0.13492  0.72217  Biso   1.000  O 
  H235     1.0000 0.13086  0.78351  0.80481  Biso   1.000  H 
  H236     1.0000 0.07218  0.84833  0.82075  Biso   1.000  H 
  O534     1.0000 0.06204  0.81346  0.80771  Biso   1.000  O 
  H237     1.0000 0.77567  0.63824  0.99837  Biso   1.000  H 
  H238     1.0000 0.69163  0.63767  0.98065  Biso   1.000  H 
  O535     1.0000 0.71470  0.67370  0.99296  Biso   1.000  O 
  H239     1.0000 0.90362  0.25923  0.83475  Biso   1.000  H 
  H240     1.0000 0.81352  0.19754  0.82280  Biso   1.000  H 
  O536     1.0000 0.83134  0.27068  0.82978  Biso   1.000  O 
  H241     1.0000 0.25808  0.21595  0.65237  Biso   1.000  H 
  H242     1.0000 0.27331  0.14222  0.63337  Biso   1.000  H 
  O537     1.0000 0.23487  0.14989  0.64460  Biso   1.000  O 
  H243     1.0000 0.68672  0.89536  0.65473  Biso   1.000  H 
  H244     1.0000 0.72557  0.91753  0.63500  Biso   1.000  H 
  O538     1.0000 0.72721  0.95066  0.64836  Biso   1.000  O 
  H245     1.0000 0.62808  0.42789  0.74402  Biso   1.000  H 
  H246     1.0000 0.68408  0.48818  0.75936  Biso   1.000  H 
  O539     1.0000 0.65338  0.41504  0.75624  Biso   1.000  O 
  H247     1.0000 0.09308  0.23746  0.88766  Biso   1.000  H 
  H248     1.0000 0.04216  0.18165  0.87213  Biso   1.000  H 
  O540     1.0000 0.06764  0.15856  0.88556  Biso   1.000  O 
  H249     1.0000 0.39295  0.12964  0.99200  Biso   1.000  H 
  H250     1.0000 0.42336  0.22644  0.97873  Biso   1.000  H 
  O541     1.0000 0.42626  0.20391  0.99210  Biso   1.000  O 
  H251     1.0000 0.47334  0.12650  0.92675  Biso   1.000  H 
  H252     1.0000 0.41298  0.17061  0.94465  Biso   1.000  H 
  O542     1.0000 0.42848  0.09726  0.93690  Biso   1.000  O 
  H253     1.0000 0.38493  0.14932  0.84484  Biso   1.000  H 
  H254     1.0000 0.36289  0.11597  0.82313  Biso   1.000  H 
  O543     1.0000 0.33659  0.16232  0.83365  Biso   1.000  O 
  H255     1.0000 0.81864  0.75406  0.91322  Biso   1.000  H 
  H256     1.0000 0.82612  0.63245  0.90328  Biso   1.000  H 
  O544     1.0000 0.84986  0.70999  0.90173  Biso   1.000  O 
  H257     1.0000 0.97511  0.23013  0.78104  Biso   1.000  H 
  H258     1.0000 0.86897  0.24102  0.77167  Biso   1.000  H 
  O545     1.0000 0.93290  0.28672  0.77470  Biso   1.000  O 
  H259     1.0000 0.56454  0.35059  0.96101  Biso   1.000  H 
  H260     1.0000 0.46569  0.39532  0.95287  Biso   1.000  H 
  O546     1.0000 0.49025  0.34129  0.96291  Biso   1.000  O 
  H261     1.0000 0.16930  0.89557  0.71294  Biso   1.000  H 
  H262     1.0000 0.24728  0.84887  0.72768  Biso   1.000  H 
  O547     1.0000 0.18989  0.90449  0.72608  Biso   1.000  O 
  H263     1.0000 0.52001  0.96840  0.76032  Biso   1.000  H 
  H264     1.0000 0.41807  0.91715  0.76186  Biso   1.000  H 
  O548     1.0000 0.47089  0.92883  0.75183  Biso   1.000  O 
  H265     1.0000 0.35829  0.45937  0.99264  Biso   1.000  H 
  H266     1.0000 0.42109  0.43782  0.97538  Biso   1.000  H 
  O549     1.0000 0.36687  0.48733  0.98070  Biso   1.000  O 
  H267     1.0000 0.85528  0.05075  0.00104  Biso   1.000  H 
  H268     1.0000 0.81674  0.01514  0.98010  Biso   1.000  H 
  O550     1.0000 0.86036  0.07056  0.98723  Biso   1.000  O 
  H269     1.0000 0.74615  0.34683  0.61985  Biso   1.000  H 
  H270     1.0000 0.54000  0.39082  0.63107  Biso   1.000  H 
  O551     1.0000 0.58981  0.34922  0.62288  Biso   1.000  O 
  H271     1.0000 0.66577  0.60695  0.92045  Biso   1.000  H 
  H272     1.0000 0.58764  0.64972  0.93252  Biso   1.000  H 
  O552     1.0000 0.64123  0.68842  0.92480  Biso   1.000  O 
  H273     1.0000 0.05906  0.93081  0.92136  Biso   1.000  H 
  H274     1.0000 0.17815  0.92053  0.92301  Biso   1.000  H 
  O553     1.0000 0.11126  0.87934  0.92640  Biso   1.000  O 
  H275     1.0000 0.49274  0.83354  0.84995  Biso   1.000  H 
  H276     1.0000 0.49558  0.79491  0.83009  Biso   1.000  H 
  O554     1.0000 0.45180  0.84020  0.83831  Biso   1.000  O 
  H277     1.0000 0.79529  0.18796  0.74454  Biso   1.000  H 
  H278     1.0000 0.73284  0.29680  0.75244  Biso   1.000  H 
  O555     1.0000 0.76931  0.21529  0.75605  Biso   1.000  O 
  H279     1.0000 0.00610  0.06948  0.89981  Biso   1.000  H 
  H280     1.0000 0.91106  0.97784  0.90051  Biso   1.000  H 
  O556     1.0000 0.96928  0.00634  0.90715  Biso   1.000  O 
  H281     1.0000 0.54721  0.34650  0.68278  Biso   1.000  H 
  H282     1.0000 0.47393  0.25876  0.69218  Biso   1.000  H 
  O557     1.0000 0.47421  0.33013  0.68609  Biso   1.000  O 
  H283     1.0000 0.94988  0.42436  0.90295  Biso   1.000  H 
  H284     1.0000 0.93477  0.42132  0.88093  Biso   1.000  H 
  O558     1.0000 0.90555  0.39371  0.89295  Biso   1.000  O 
  H285     1.0000 0.25608  0.31312  0.00388  Biso   1.000  H 
  H286     1.0000 0.24413  0.28359  0.98384  Biso   1.000  H 
  O559     1.0000 0.20960  0.28660  0.99523  Biso   1.000  O 
  H287     1.0000 0.03313  0.34335  0.85711  Biso   1.000  H 
  H288     1.0000 0.06508  0.23486  0.84333  Biso   1.000  H 
  O560     1.0000 0.01234  0.26339  0.85423  Biso   1.000  O 
  O561     1.0000 0.08068  0.70373  0.90126  Biso   1.000  O 
  H289     1.0000 0.00156  0.71623  0.89800  Biso   1.000  H 
  H290     1.0000 0.09236  0.77081  0.90982  Biso   1.000  H 
  O562     1.0000 0.97751  0.69928  0.67941  Biso   1.000  O 
  H291     1.0000 0.94030  0.76883  0.67557  Biso   1.000  H 
  H292     1.0000 0.96434  0.63393  0.67152  Biso   1.000  H 
  O563     1.0000 0.58374  0.41005  0.85578  Biso   1.000  O 
  H293     1.0000 0.56663  0.41209  0.84211  Biso   1.000  H 
  H294     1.0000 0.63350  0.33915  0.85488  Biso   1.000  H 
  O564     1.0000 0.88360  0.72819  0.71456  Biso   1.000  O 
  H295     1.0000 0.93661  0.71748  0.70412  Biso   1.000  H 
  H296     1.0000 0.92487  0.76428  0.72423  Biso   1.000  H 
  O565     1.0000 0.17155  0.38125  0.69063  Biso   1.000  O 
  H297     1.0000 0.16344  0.34069  0.70340  Biso   1.000  H 
  H298     1.0000 0.17383  0.46004  0.69660  Biso   1.000  H 
  O566     1.0000 0.09307  0.59871  0.75302  Biso   1.000  O 
  H299     1.0000 0.06538  0.67538  0.74989  Biso   1.000  H 
  H300     1.0000 0.16235  0.59893  0.74944  Biso   1.000  H 
  O567     1.0000 0.72366  0.40229  0.96091  Biso   1.000  O 
  H301     1.0000 0.74400  0.35581  0.97218  Biso   1.000  H 
  H302     1.0000 0.78805  0.44910  0.95740  Biso   1.000  H 
  O568     1.0000 0.29580  0.33638  0.66373  Biso   1.000  O 
  H303     1.0000 0.36251  0.35053  0.66905  Biso   1.000  H 
  H304     1.0000 0.24931  0.34516  0.67600  Biso   1.000  H 
  O569     1.0000 0.50646  0.12911  0.70562  Biso   1.000  O 
  H305     1.0000 0.49109  0.11182  0.71866  Biso   1.000  H 
  H306     1.0000 0.57355  0.08915  0.70318  Biso   1.000  H 
  O570     1.0000 0.53808  0.96190  0.95932  Biso   1.000  O 
  H307     1.0000 0.51240  0.01972  0.95047  Biso   1.000  H 
  H308     1.0000 0.48485  0.96573  0.96950  Biso   1.000  H 
