data_image0
_chemical_formula_structural       Ti2O3Ti2O3Ti2O3Ti2O4Ti2O4Ti2O4Ti2O4Ti2O4Ti2O4Ti2O4Ti2O4Ti2O4Ti2O4Ti2O4Ti2O4Ti2O4Ti2O4Ti2O4Ti2O4Ti2O4Ti2O4Ti2O4Ti2O4Ti2O4Ti2O4Ti2O4Ti2O4Ti2O4Ti2O4Ti2O4Ti2O4Ti2O4Ti2O4Ti2O4Ti2O4Ti2O4Ti2O4Ti2O4Ti2O4Ti2O4Ti2O4Ti2O4Ti2O4Ti2O4Ti2O4Ti2O4Ti2O3Ti2O3Ti2O3Ti2O10H2OH2OH2OH2OH2OH2OH2OH2OH2OH2OH2OH2OH2OH2OH2OH2OH2OH2OH2OH2OH2OH2OH2OH2OH2OH2OH2OH2OH2OH2OH2OH2OH2OH2OH2OH2OH2OH2OH2OH2OH2OH2OH2OH2OH2OH2OH2OH2OH2OH2OH2OH2OH2OH2OH2OH2OH2OH2OH2OH2OH2OH2OH2OH2OH2OH2OH2OH2OH2OH2OH2OH2OH2OH2OH2OH2OH2OH2OH2OH2OH2OH2OH2OH2OH2OH2OH2OH2OH2OH2OH2OH2OH2OH2OH2OH2OH2OH2OH2OH2OH2OH2OH2OH2OH2OH2OH2OH2OH2OH2OH2OH2OH2OH2OH2OH2OH2OH2OH2OH2OH2OH2OH2OH2OH2OH2OH2OH2OH2OH2OH2OH2OH2OH2OH2OH2OH2OH2OH2OH2OH2OH2OH2OH2OH2OH2OH2OH2OH2OH2OH2OH2OH2OH2OH2OH2OH2OH2OH2OH2OH2OH2OH2OH2OH2OH2OH2OH2OH2OH2OH2OH2OH2OH2OH2OTi2O3Ti2O3Ti2O3Ti2O4Ti2O4Ti2O4Ti2O4Ti2O4Ti2O4Ti2O4Ti2O4Ti2O4Ti2O4Ti2O4Ti2O4Ti2O4Ti2O4Ti2O4Ti2O4Ti2O4Ti2O4Ti2O4Ti2O4Ti2O4Ti2O4Ti2O4Ti2O4Ti2O4Ti2O4Ti2O4Ti2O4Ti2O4Ti2O4Ti2O4Ti2O4Ti2O4Ti2O4Ti2O4Ti2O4Ti2O4Ti2O4Ti2O4Ti2O4Ti2O4Ti2O4Ti2O4Ti2O3Ti2O3Ti2O3Ti2O10H2OH2OH2OH2OH2OH2OH2OH2OH2OH2OH2OH2OH2OH2OH2OH2OH2OH2OH2OH2OH2OH2OH2OH2OH2OH2OH2OH2OH2OH2OH2OH2OH2OH2OH2OH2OH2OH2OH2OH2OH2OH2OH2OH2OH2OH2OH2OH2OH2OH2OH2OH2OH2OH2OH2OH2OH2OH2OH2OH2OH2OH2OH2OH2OH2OH2OH2OH2OH2OH2OH2OH2OH2OH2OH2OH2OH2OH2OH2OH2OH2OH2OH2OH2OH2OH2OH2OH2OH2OH2OH2OH2OH2OH2OH2OH2OH2OH2OH2OH2OH2OH2OH2OH2OH2OH2OH2OH2OH2OH2OH2OH2OH2OH2OH2OH2OH2OH2OH2OH2OH2OH2OH2OH2OH2OH2OH2OH2OH2OH2OH2OH2OH2OH2OH2OH2OH2OH2OH2OH2OH2OH2OH2OH2OH2OH2OH2OH2OH2OH2OH2OH2OH2OH2OH2OH2OH2OH2OH2OH2OH2OH2OH2OH2OH2OH2OH2OH2OH2OH2OH2OH2OH2OH2OH2O2H2OH2OH2OH2OH2OH2OH2OH2OH2OH2OH2OH2OH2OH2OH2OH2OH2OH2OH2OH2OH2OH2OH2OH2OH2OH2OH2OH2OH2OH2OH2OH2OH2OH2OH2OH2OH2OH2OH2OH2OH2OH2OH2OH2OH2
_chemical_formula_sum              "Ti200 O795 H790"
_cell_length_a       27.0242
_cell_length_b       14.2754
_cell_length_c       48.1463
_cell_angle_alpha    90
_cell_angle_beta     90
_cell_angle_gamma    72.5928

_space_group_name_H-M_alt    "P 1"
_space_group_IT_number       1

loop_
  _space_group_symop_operation_xyz
  'x, y, z'

loop_
  _atom_site_type_symbol
  _atom_site_label
  _atom_site_symmetry_multiplicity
  _atom_site_fract_x
  _atom_site_fract_y
  _atom_site_fract_z
  _atom_site_occupancy
  Ti  Ti1       1.0  0.98354  0.17773  0.06884  1.0000
  Ti  Ti2       1.0  0.98901  0.94562  0.06921  1.0000
  O   O1        1.0  0.95779  0.32895  0.07226  1.0000
  O   O2        1.0  0.91849  0.00854  0.06870  1.0000
  O   O3        1.0  0.51310  0.06875  0.07222  1.0000
  Ti  Ti3       1.0  0.87915  0.15899  0.06975  1.0000
  Ti  Ti4       1.0  0.88939  0.40431  0.07534  1.0000
  O   O4        1.0  0.84652  0.30097  0.07641  1.0000
  O   O5        1.0  0.80689  0.99212  0.08151  1.0000
  O   O6        1.0  0.40733  0.05218  0.08187  1.0000
  Ti  Ti5       1.0  0.77600  0.13366  0.07785  1.0000
  Ti  Ti6       1.0  0.78162  0.38609  0.08031  1.0000
  O   O7        1.0  0.74883  0.27949  0.08148  1.0000
  O   O8        1.0  0.70368  0.95773  0.08678  1.0000
  O   O9        1.0  0.30385  0.03302  0.09076  1.0000
  Ti  Ti7       1.0  0.66949  0.12268  0.08730  1.0000
  Ti  Ti8       1.0  0.67655  0.36053  0.08949  1.0000
  O   O10       1.0  0.63796  0.25651  0.09327  1.0000
  O   O11       1.0  0.60114  0.43693  0.08731  1.0000
  O   O12       1.0  0.20574  0.98689  0.09431  1.0000
  O   O13       1.0  0.04308  0.20605  0.08804  1.0000
  Ti  Ti9       1.0  0.57227  0.08400  0.09172  1.0000
  Ti  Ti10      1.0  0.56505  0.33347  0.09853  1.0000
  O   O14       1.0  0.53552  0.23108  0.10009  1.0000
  O   O15       1.0  0.49716  0.41895  0.09479  1.0000
  O   O16       1.0  0.10007  0.97808  0.10117  1.0000
  O   O17       1.0  0.94295  0.16450  0.09680  1.0000
  Ti  Ti11      1.0  0.46447  0.05908  0.09956  1.0000
  Ti  Ti12      1.0  0.46026  0.31066  0.09301  1.0000
  O   O18       1.0  0.43238  0.21003  0.10603  1.0000
  O   O19       1.0  0.38942  0.39447  0.10356  1.0000
  O   O20       1.0  0.99692  0.44885  0.10712  1.0000
  O   O21       1.0  0.83640  0.13395  0.10369  1.0000
  Ti  Ti13      1.0  0.36427  0.04021  0.11266  1.0000
  Ti  Ti14      1.0  0.36185  0.29180  0.11457  1.0000
  O   O22       1.0  0.33059  0.18301  0.11130  1.0000
  O   O23       1.0  0.28852  0.36721  0.11285  1.0000
  O   O24       1.0  0.89445  0.40767  0.11347  1.0000
  O   O25       1.0  0.72658  0.12316  0.11110  1.0000
  Ti  Ti15      1.0  0.26104  0.01721  0.11890  1.0000
  Ti  Ti16      1.0  0.25827  0.26104  0.12221  1.0000
  O   O26       1.0  0.22697  0.15393  0.12092  1.0000
  O   O27       1.0  0.18881  0.33627  0.11895  1.0000
  O   O28       1.0  0.78921  0.38901  0.12227  1.0000
  O   O29       1.0  0.62925  0.09221  0.11768  1.0000
  Ti  Ti17      1.0  0.16181  0.97635  0.12195  1.0000
  Ti  Ti18      1.0  0.15213  0.23388  0.12795  1.0000
  O   O30       1.0  0.12540  0.12673  0.12519  1.0000
  O   O31       1.0  0.08129  0.30520  0.12519  1.0000
  O   O32       1.0  0.68493  0.35770  0.13055  1.0000
  O   O33       1.0  0.52449  0.06297  0.12637  1.0000
  Ti  Ti19      1.0  0.05792  0.96591  0.12913  1.0000
  Ti  Ti20      1.0  0.05402  0.19797  0.12366  1.0000
  O   O34       1.0  0.02034  0.09531  0.13483  1.0000
  O   O35       1.0  0.98264  0.28282  0.13458  1.0000
  O   O36       1.0  0.57437  0.34079  0.13555  1.0000
  O   O37       1.0  0.42229  0.04436  0.13618  1.0000
  Ti  Ti21      1.0  0.95338  0.41434  0.13991  1.0000
  Ti  Ti22      1.0  0.94559  0.17185  0.13987  1.0000
  O   O38       1.0  0.91703  0.07029  0.14190  1.0000
  O   O39       1.0  0.87660  0.25104  0.13862  1.0000
  O   O40       1.0  0.47330  0.30979  0.14923  1.0000
  O   O41       1.0  0.31661  0.02635  0.14239  1.0000
  Ti  Ti23      1.0  0.84895  0.39298  0.14475  1.0000
  Ti  Ti24      1.0  0.84414  0.13988  0.14194  1.0000
  O   O42       1.0  0.81290  0.03292  0.14853  1.0000
  O   O43       1.0  0.77389  0.22228  0.14846  1.0000
  O   O44       1.0  0.37119  0.28233  0.15311  1.0000
  O   O45       1.0  0.21055  0.98659  0.14886  1.0000
  Ti  Ti25      1.0  0.74706  0.36795  0.15207  1.0000
  Ti  Ti26      1.0  0.74049  0.11764  0.14965  1.0000
  O   O46       1.0  0.71123  0.01368  0.15575  1.0000
  O   O47       1.0  0.66812  0.19947  0.15608  1.0000
  O   O48       1.0  0.26860  0.26471  0.15976  1.0000
  O   O49       1.0  0.11089  0.95894  0.15374  1.0000
  Ti  Ti27      1.0  0.64268  0.34292  0.16295  1.0000
  Ti  Ti28      1.0  0.63926  0.08833  0.16065  1.0000
  O   O50       1.0  0.60325  0.98753  0.16356  1.0000
  O   O51       1.0  0.56467  0.17368  0.16626  1.0000
  O   O52       1.0  0.16052  0.23587  0.16553  1.0000
  O   O53       1.0  0.01019  0.42729  0.15937  1.0000
  Ti  Ti29      1.0  0.53398  0.30678  0.16550  1.0000
  Ti  Ti30      1.0  0.53248  0.05928  0.16571  1.0000
  O   O54       1.0  0.49968  0.96100  0.17164  1.0000
  O   O55       1.0  0.46136  0.14516  0.17464  1.0000
  O   O56       1.0  0.06334  0.20046  0.17374  1.0000
  O   O57       1.0  0.90303  0.41364  0.16773  1.0000
  Ti  Ti31      1.0  0.43080  0.28586  0.17753  1.0000
  Ti  Ti32      1.0  0.42832  0.04688  0.17667  1.0000
  O   O58       1.0  0.39815  0.43565  0.17746  1.0000
  O   O59       1.0  0.35711  0.12067  0.18099  1.0000
  O   O60       1.0  0.95696  0.18154  0.17919  1.0000
  O   O61       1.0  0.80435  0.37498  0.17400  1.0000
  Ti  Ti33      1.0  0.32753  0.26580  0.18559  1.0000
  Ti  Ti34      1.0  0.32677  0.00487  0.18135  1.0000
  O   O62       1.0  0.29289  0.40994  0.18431  1.0000
  O   O63       1.0  0.25290  0.09017  0.18592  1.0000
  O   O64       1.0  0.85691  0.14063  0.18508  1.0000
  O   O65       1.0  0.69897  0.34579  0.18380  1.0000
  Ti  Ti35      1.0  0.22261  0.23702  0.19088  1.0000
  Ti  Ti36      1.0  0.22722  0.97810  0.18794  1.0000
  O   O66       1.0  0.18791  0.38190  0.19226  1.0000
  O   O67       1.0  0.15557  0.07073  0.19304  1.0000
  O   O68       1.0  0.75201  0.11979  0.19316  1.0000
  O   O69       1.0  0.59507  0.32408  0.18871  1.0000
  Ti  Ti37      1.0  0.11825  0.20113  0.19527  1.0000
  Ti  Ti38      1.0  0.11631  0.96004  0.19260  1.0000
  O   O70       1.0  0.08621  0.35542  0.19802  1.0000
  O   O71       1.0  0.05067  0.04262  0.20138  1.0000
  O   O72       1.0  0.64762  0.08061  0.19984  1.0000
  O   O73       1.0  0.48578  0.29410  0.19840  1.0000
  Ti  Ti39      1.0  0.01575  0.19325  0.20344  1.0000
  Ti  Ti40      1.0  0.01449  0.43235  0.20180  1.0000
  O   O74       1.0  0.98409  0.32375  0.20701  1.0000
  O   O75       1.0  0.94377  0.01524  0.20727  1.0000
  O   O76       1.0  0.53701  0.06233  0.21059  1.0000
  O   O77       1.0  0.37932  0.26668  0.20534  1.0000
  Ti  Ti41      1.0  0.90811  0.15991  0.20638  1.0000
  Ti  Ti42      1.0  0.91102  0.40866  0.21452  1.0000
  O   O78       1.0  0.88031  0.29558  0.21406  1.0000
  O   O79       1.0  0.84225  0.98378  0.21370  1.0000
  O   O80       1.0  0.44421  0.01730  0.21767  1.0000
  O   O81       1.0  0.27726  0.24853  0.21103  1.0000
  Ti  Ti43      1.0  0.80486  0.12389  0.21423  1.0000
  Ti  Ti44      1.0  0.80945  0.37206  0.21868  1.0000
  O   O82       1.0  0.77726  0.26861  0.22265  1.0000
  O   O83       1.0  0.74157  0.96459  0.22162  1.0000
  O   O84       1.0  0.33611  0.00889  0.22482  1.0000
  O   O85       1.0  0.17703  0.21688  0.22067  1.0000
  Ti  Ti45      1.0  0.69905  0.10136  0.22768  1.0000
  Ti  Ti46      1.0  0.70683  0.33788  0.22741  1.0000
  O   O86       1.0  0.66950  0.24124  0.22951  1.0000
  O   O87       1.0  0.63359  0.42275  0.22964  1.0000
  O   O88       1.0  0.23444  0.98100  0.23066  1.0000
  O   O89       1.0  0.07289  0.18364  0.22708  1.0000
  Ti  Ti47      1.0  0.59467  0.06751  0.23050  1.0000
  Ti  Ti48      1.0  0.59698  0.32161  0.22974  1.0000
  O   O90       1.0  0.57554  0.21045  0.23311  1.0000
  O   O91       1.0  0.52531  0.39350  0.23908  1.0000
  O   O92       1.0  0.13004  0.96328  0.23780  1.0000
  O   O93       1.0  0.97020  0.16899  0.23171  1.0000
  Ti  Ti49      1.0  0.50046  0.03526  0.24172  1.0000
  Ti  Ti50      1.0  0.49713  0.28316  0.24052  1.0000
  O   O94       1.0  0.46724  0.17491  0.24377  1.0000
  O   O95       1.0  0.42560  0.36654  0.24532  1.0000
  O   O96       1.0  0.02717  0.41719  0.24391  1.0000
  O   O97       1.0  0.86398  0.14902  0.23962  1.0000
  Ti  Ti51      1.0  0.39482  0.02091  0.24594  1.0000
  Ti  Ti52      1.0  0.39193  0.26359  0.25092  1.0000
  O   O98       1.0  0.35839  0.15793  0.24867  1.0000
  O   O99       1.0  0.32270  0.34247  0.25197  1.0000
  O   O100      1.0  0.92355  0.39833  0.25150  1.0000
  O   O101      1.0  0.76553  0.10892  0.24661  1.0000
  Ti  Ti53      1.0  0.28912  0.99504  0.25543  1.0000
  Ti  Ti54      1.0  0.28876  0.24836  0.25202  1.0000
  O   O102      1.0  0.26192  0.13307  0.25585  1.0000
  O   O103      1.0  0.21954  0.32190  0.25945  1.0000
  O   O104      1.0  0.81781  0.35778  0.26058  1.0000
  O   O105      1.0  0.66015  0.07595  0.25600  1.0000
  Ti  Ti55      1.0  0.19004  0.96086  0.25908  1.0000
  Ti  Ti56      1.0  0.19064  0.20200  0.26064  1.0000
  O   O106      1.0  0.15720  0.10854  0.26671  1.0000
  O   O107      1.0  0.11490  0.29064  0.26779  1.0000
  O   O108      1.0  0.71162  0.35126  0.26769  1.0000
  O   O109      1.0  0.56112  0.04272  0.26332  1.0000
  Ti  Ti57      1.0  0.09205  0.42878  0.26868  1.0000
  Ti  Ti58      1.0  0.08346  0.19103  0.26875  1.0000
  O   O110      1.0  0.05061  0.08493  0.26979  1.0000
  O   O111      1.0  0.01064  0.26222  0.27533  1.0000
  O   O112      1.0  0.61199  0.31422  0.27413  1.0000
  O   O113      1.0  0.44719  0.03202  0.26968  1.0000
  Ti  Ti59      1.0  0.98716  0.40417  0.27239  1.0000
  Ti  Ti60      1.0  0.98011  0.15365  0.27031  1.0000
  O   O114      1.0  0.94908  0.04847  0.27656  1.0000
  O   O115      1.0  0.91055  0.22620  0.28031  1.0000
  O   O116      1.0  0.50810  0.28189  0.28015  1.0000
  O   O117      1.0  0.34402  0.99701  0.27791  1.0000
  Ti  Ti61      1.0  0.88076  0.38293  0.28646  1.0000
  Ti  Ti62      1.0  0.87713  0.13721  0.27685  1.0000
  O   O118      1.0  0.84252  0.02307  0.28525  1.0000
  O   O119      1.0  0.80016  0.20738  0.28512  1.0000
  O   O120      1.0  0.39818  0.26336  0.28792  1.0000
  O   O121      1.0  0.24508  0.96893  0.28467  1.0000
  Ti  Ti63      1.0  0.77696  0.35005  0.28848  1.0000
  Ti  Ti64      1.0  0.77139  0.10455  0.28734  1.0000
  O   O122      1.0  0.74076  0.99718  0.29411  1.0000
  O   O123      1.0  0.70300  0.18075  0.29178  1.0000
  O   O124      1.0  0.29917  0.24084  0.29627  1.0000
  O   O125      1.0  0.14082  0.44912  0.29153  1.0000
  Ti  Ti65      1.0  0.66972  0.31783  0.29350  1.0000
  Ti  Ti66      1.0  0.67070  0.06610  0.29940  1.0000
  O   O126      1.0  0.63538  0.96389  0.30082  1.0000
  O   O127      1.0  0.59514  0.14920  0.30241  1.0000
  O   O128      1.0  0.19884  0.21187  0.30268  1.0000
  O   O129      1.0  0.03994  0.42134  0.29863  1.0000
  Ti  Ti67      1.0  0.56387  0.30228  0.30350  1.0000
  Ti  Ti68      1.0  0.56623  0.04477  0.30741  1.0000
  O   O130      1.0  0.53501  0.43690  0.30566  1.0000
  O   O131      1.0  0.48737  0.12798  0.30711  1.0000
  O   O132      1.0  0.08755  0.18869  0.31059  1.0000
  O   O133      1.0  0.93671  0.38031  0.30672  1.0000
  Ti  Ti69      1.0  0.46618  0.26763  0.31372  1.0000
  Ti  Ti70      1.0  0.45707  0.02403  0.31190  1.0000
  O   O134      1.0  0.42872  0.41288  0.31471  1.0000
  O   O135      1.0  0.38386  0.10394  0.31800  1.0000
  O   O136      1.0  0.98438  0.15206  0.31840  1.0000
  O   O137      1.0  0.83734  0.35287  0.31148  1.0000
  Ti  Ti71      1.0  0.35514  0.25240  0.31754  1.0000
  Ti  Ti72      1.0  0.35698  0.99252  0.31936  1.0000
  O   O138      1.0  0.32771  0.39209  0.32143  1.0000
  O   O139      1.0  0.28322  0.07334  0.32147  1.0000
  O   O140      1.0  0.88089  0.14247  0.32539  1.0000
  O   O141      1.0  0.73147  0.33487  0.31948  1.0000
  Ti  Ti73      1.0  0.25333  0.22047  0.32512  1.0000
  Ti  Ti74      1.0  0.25337  0.96550  0.32702  1.0000
  O   O142      1.0  0.22317  0.36252  0.32750  1.0000
  O   O143      1.0  0.18185  0.04748  0.32997  1.0000
  O   O144      1.0  0.77894  0.10856  0.32979  1.0000
  O   O145      1.0  0.62972  0.29361  0.32637  1.0000
  Ti  Ti75      1.0  0.15221  0.17885  0.33102  1.0000
  Ti  Ti76      1.0  0.14869  0.44448  0.33230  1.0000
  O   O146      1.0  0.12063  0.33838  0.33759  1.0000
  O   O147      1.0  0.07900  0.01861  0.33508  1.0000
  O   O148      1.0  0.67919  0.08076  0.33644  1.0000
  O   O149      1.0  0.51868  0.28452  0.33348  1.0000
  Ti  Ti77      1.0  0.04060  0.16243  0.33902  1.0000
  Ti  Ti78      1.0  0.04818  0.41602  0.34152  1.0000
  O   O150      1.0  0.01488  0.30443  0.34192  1.0000
  O   O151      1.0  0.97386  0.99073  0.34489  1.0000
  O   O152      1.0  0.57342  0.03830  0.34681  1.0000
  O   O153      1.0  0.41420  0.25132  0.34441  1.0000
  Ti  Ti79      1.0  0.93727  0.14082  0.34748  1.0000
  Ti  Ti80      1.0  0.94310  0.39196  0.34691  1.0000
  O   O154      1.0  0.91334  0.28245  0.35169  1.0000
  O   O155      1.0  0.87064  0.96545  0.35033  1.0000
  O   O156      1.0  0.46663  0.02863  0.35252  1.0000
  O   O157      1.0  0.31439  0.23398  0.34985  1.0000
  Ti  Ti81      1.0  0.83340  0.10990  0.35166  1.0000
  Ti  Ti82      1.0  0.84168  0.35780  0.35859  1.0000
  O   O158      1.0  0.80622  0.26017  0.35961  1.0000
  O   O159      1.0  0.76657  0.44001  0.36139  1.0000
  O   O160      1.0  0.36605  0.98672  0.35874  1.0000
  O   O161      1.0  0.21028  0.19795  0.35646  1.0000
  Ti  Ti83      1.0  0.73352  0.08131  0.36312  1.0000
  Ti  Ti84      1.0  0.73594  0.33564  0.35791  1.0000
  O   O162      1.0  0.70421  0.23293  0.36497  1.0000
  O   O163      1.0  0.66001  0.41408  0.36340  1.0000
  O   O164      1.0  0.26604  0.95708  0.36579  1.0000
  O   O165      1.0  0.10754  0.18029  0.36240  1.0000
  Ti  Ti85      1.0  0.63181  0.05386  0.37140  1.0000
  Ti  Ti86      1.0  0.63321  0.29945  0.36397  1.0000
  O   O166      1.0  0.60498  0.19863  0.37609  1.0000
  O   O167      1.0  0.56270  0.38590  0.37431  1.0000
  O   O168      1.0  0.16165  0.44778  0.37588  1.0000
  O   O169      1.0  0.00025  0.14834  0.37161  1.0000
  Ti  Ti87      1.0  0.52640  0.02662  0.37691  1.0000
  Ti  Ti88      1.0  0.53387  0.27527  0.38770  1.0000
  O   O170      1.0  0.50167  0.17689  0.38191  1.0000
  O   O171      1.0  0.45731  0.35159  0.38446  1.0000
  O   O172      1.0  0.05289  0.41397  0.38220  1.0000
  O   O173      1.0  0.89630  0.11546  0.37932  1.0000
  Ti  Ti89      1.0  0.42241  0.00007  0.38641  1.0000
  Ti  Ti90      1.0  0.42605  0.25007  0.38111  1.0000
  O   O174      1.0  0.38947  0.14462  0.38849  1.0000
  O   O175      1.0  0.35829  0.32942  0.39316  1.0000
  O   O176      1.0  0.95141  0.37499  0.39164  1.0000
  O   O177      1.0  0.79644  0.08640  0.38197  1.0000
  Ti  Ti91      1.0  0.31838  0.97614  0.39043  1.0000
  Ti  Ti92      1.0  0.32031  0.22360  0.38849  1.0000
  O   O178      1.0  0.29191  0.12033  0.39474  1.0000
  O   O179      1.0  0.24757  0.30656  0.39935  1.0000
  O   O180      1.0  0.85349  0.35310  0.39693  1.0000
  O   O181      1.0  0.69103  0.06060  0.38996  1.0000
  Ti  Ti93      1.0  0.22237  0.45071  0.39969  1.0000
  Ti  Ti94      1.0  0.21051  0.20497  0.39438  1.0000
  O   O182      1.0  0.18587  0.09245  0.40063  1.0000
  O   O183      1.0  0.14417  0.27566  0.40446  1.0000
  O   O184      1.0  0.59442  0.02342  0.39719  1.0000
  Ti  Ti95      1.0  0.12356  0.42495  0.40700  1.0000
  Ti  Ti96      1.0  0.11157  0.16998  0.39961  1.0000
  O   O185      1.0  0.08326  0.06199  0.40469  1.0000
  O   O186      1.0  0.04547  0.24432  0.41169  1.0000
  O   O187      1.0  0.48269  0.01347  0.40583  1.0000
  Ti  Ti97      1.0  0.01717  0.39052  0.41389  1.0000
  Ti  Ti98      1.0  0.00549  0.15180  0.41115  1.0000
  O   O188      1.0  0.97307  0.04101  0.41544  1.0000
  O   O189      1.0  0.94225  0.22560  0.42167  1.0000
  O   O190      1.0  0.38032  0.98150  0.41266  1.0000
  Ti  Ti99      1.0  0.90469  0.37980  0.41802  1.0000
  Ti  Ti100     1.0  0.90118  0.11346  0.41769  1.0000
  O   O191      1.0  0.86696  0.01500  0.42368  1.0000
  O   O192      1.0  0.27429  0.95840  0.41659  1.0000
  O   O193      1.0  0.01170  0.04118  0.05720  1.0000
  O   O194      1.0  0.61671  0.10004  0.06376  1.0000
  O   O195      1.0  0.71486  0.11181  0.05903  1.0000
  O   O196      1.0  0.82370  0.14177  0.05012  1.0000
  O   O197      1.0  0.92232  0.18918  0.04668  1.0000
  O   O198      1.0  0.17491  0.43317  0.42843  1.0000
  O   O199      1.0  0.06732  0.41107  0.43400  1.0000
  O   O200      1.0  0.96925  0.37347  0.44452  1.0000
  H   H1        1.0  0.09495  0.37657  0.05166  1.0000
  H   H2        1.0  0.08175  0.29113  0.06508  1.0000
  O   O201      1.0  0.06515  0.35447  0.05536  1.0000
  H   H3        1.0  0.82588  0.28771  0.41560  1.0000
  H   H4        1.0  0.83529  0.01688  0.41068  1.0000
  O   O202      1.0  0.82624  0.21970  0.42413  1.0000
  H   H5        1.0  0.07133  0.11109  0.45804  1.0000
  H   H6        1.0  0.04075  0.03022  0.45380  1.0000
  O   O203      1.0  0.03514  0.10557  0.45614  1.0000
  H   H7        1.0  0.06298  0.99767  0.80726  1.0000
  H   H8        1.0  0.04894  0.95496  0.83392  1.0000
  O   O204      1.0  0.06806  0.93621  0.81626  1.0000
  H   H9        1.0  0.10610  0.13728  0.60746  1.0000
  H   H10       1.0  0.01114  0.10216  0.87823  1.0000
  O   O205      1.0  0.01368  0.16665  0.88368  1.0000
  H   H11       1.0  0.74067  0.95136  0.85719  1.0000
  H   H12       1.0  0.04741  0.17219  0.87584  1.0000
  O   O206      1.0  0.45545  0.83358  0.64293  1.0000
  H   H13       1.0  0.41885  0.84882  0.63772  1.0000
  H   H14       1.0  0.77523  0.35839  0.49551  1.0000
  O   O207      1.0  0.77714  0.42754  0.49078  1.0000
  H   H15       1.0  0.76860  0.80462  0.54003  1.0000
  H   H16       1.0  0.74199  0.46801  0.48979  1.0000
  O   O208      1.0  0.54464  0.28288  0.42180  1.0000
  H   H17       1.0  0.71568  0.82348  0.55807  1.0000
  H   H18       1.0  0.69829  0.34158  0.41382  1.0000
  O   O209      1.0  0.74199  0.85127  0.55175  1.0000
  H   H19       1.0  0.79762  0.20645  0.41345  1.0000
  H   H20       1.0  0.71532  0.43063  0.40515  1.0000
  O   O210      1.0  0.72951  0.35827  0.40823  1.0000
  H   H21       1.0  0.89810  0.09730  0.47582  1.0000
  H   H22       1.0  0.88594  0.21410  0.46608  1.0000
  O   O211      1.0  0.89770  0.14309  0.46045  1.0000
  H   H23       1.0  0.01748  0.52213  0.56846  1.0000
  H   H24       1.0  0.87177  0.33428  0.02208  1.0000
  O   O212      1.0  0.99136  0.50188  0.55564  1.0000
  H   H25       1.0  0.95872  0.55760  0.55645  1.0000
  H   H26       1.0  0.39661  0.41273  0.80881  1.0000
  O   O213      1.0  0.37366  0.46427  0.79803  1.0000
  H   H27       1.0  0.51412  0.07964  0.01130  1.0000
  H   H28       1.0  0.36626  0.43907  0.77991  1.0000
  O   O214      1.0  0.66513  0.39038  0.03986  1.0000
  H   H29       1.0  0.44007  0.10216  0.63696  1.0000
  H   H30       1.0  0.63252  0.44117  0.03907  1.0000
  O   O215      1.0  0.45081  0.14848  0.64858  1.0000
  H   H31       1.0  0.26244  0.29447  0.79366  1.0000
  H   H32       1.0  0.52777  0.29119  0.04872  1.0000
  O   O216      1.0  0.45883  0.25394  0.95686  1.0000
  H   H33       1.0  0.46777  0.21009  0.97330  1.0000
  H   H34       1.0  0.54311  0.66208  0.89005  1.0000
  O   O217      1.0  0.45788  0.18310  0.01348  1.0000
  H   H35       1.0  0.32209  0.75532  0.58779  1.0000
  H   H36       1.0  0.28153  0.26891  0.06238  1.0000
  O   O218      1.0  0.25685  0.23514  0.07063  1.0000
  H   H37       1.0  0.19058  0.23026  0.07441  1.0000
  H   H38       1.0  0.16689  0.14288  0.07716  1.0000
  O   O219      1.0  0.15830  0.21358  0.07947  1.0000
  H   H39       1.0  0.97769  0.47176  0.01091  1.0000
  H   H40       1.0  0.94001  0.42350  0.02634  1.0000
  O   O220      1.0  0.98167  0.91714  0.02234  1.0000
  H   H41       1.0  0.83637  0.38333  0.46608  1.0000
  H   H42       1.0  0.89053  0.36120  0.47655  1.0000
  O   O221      1.0  0.87282  0.34429  0.46035  1.0000
  H   H43       1.0  0.04525  0.17817  0.01930  1.0000
  H   H44       1.0  0.00992  0.29368  0.02367  1.0000
  O   O222      1.0  0.01489  0.22161  0.02902  1.0000
  H   H45       1.0  0.21418  0.57286  0.63190  1.0000
  H   H46       1.0  0.22394  0.47493  0.61401  1.0000
  O   O223      1.0  0.20913  0.50150  0.63156  1.0000
  H   H47       1.0  0.59063  0.54076  0.99979  1.0000
  H   H48       1.0  0.64251  0.56577  0.99500  1.0000
  O   O224      1.0  0.60934  0.56607  0.98464  1.0000
  H   H49       1.0  0.26592  0.45076  0.56415  1.0000
  H   H50       1.0  0.20651  0.44088  0.56846  1.0000
  O   O225      1.0  0.22875  0.48013  0.56070  1.0000
  H   H51       1.0  0.72335  0.39870  0.03585  1.0000
  H   H52       1.0  0.84835  0.45141  0.01935  1.0000
  O   O226      1.0  0.87921  0.39397  0.02783  1.0000
  H   H53       1.0  0.39197  0.15330  0.50980  1.0000
  H   H54       1.0  0.34028  0.15749  0.52791  1.0000
  O   O227      1.0  0.37218  0.11227  0.51672  1.0000
  H   H55       1.0  0.07269  0.60291  0.57977  1.0000
  H   H56       1.0  0.09945  0.48455  0.58538  1.0000
  O   O228      1.0  0.06686  0.53889  0.58741  1.0000
  H   H57       1.0  0.15390  0.04911  0.92080  1.0000
  H   H58       1.0  0.13436  0.14573  0.90512  1.0000
  O   O229      1.0  0.16148  0.11345  0.91992  1.0000
  H   H59       1.0  0.58383  0.76257  0.94540  1.0000
  H   H60       1.0  0.60703  0.71971  0.91539  1.0000
  O   O230      1.0  0.61053  0.75750  0.93204  1.0000
  H   H61       1.0  0.83624  0.74320  0.67039  1.0000
  H   H62       1.0  0.83651  0.64021  0.66072  1.0000
  O   O231      1.0  0.84412  0.69918  0.65500  1.0000
  H   H63       1.0  0.56989  0.71831  0.78539  1.0000
  H   H64       1.0  0.50864  0.75191  0.79082  1.0000
  O   O232      1.0  0.54462  0.73214  0.80053  1.0000
  H   H65       1.0  0.76896  0.42525  0.61696  1.0000
  H   H66       1.0  0.73275  0.53126  0.62227  1.0000
  O   O233      1.0  0.74536  0.46557  0.63097  1.0000
  H   H67       1.0  0.32518  0.32723  0.62257  1.0000
  H   H68       1.0  0.05176  0.84464  0.64162  1.0000
  O   O234      1.0  0.30452  0.28584  0.62102  1.0000
  H   H69       1.0  0.53259  0.61648  0.73711  1.0000
  H   H70       1.0  0.56877  0.57872  0.71014  1.0000
  O   O235      1.0  0.54769  0.63698  0.71949  1.0000
  H   H71       1.0  0.58124  0.94143  0.87146  1.0000
  H   H72       1.0  0.62876  0.85803  0.89113  1.0000
  O   O236      1.0  0.59767  0.86999  0.87905  1.0000
  H   H73       1.0  0.14504  0.55279  0.82835  1.0000
  H   H74       1.0  0.08443  0.24305  0.62054  1.0000
  O   O237      1.0  0.07273  0.18928  0.61365  1.0000
  H   H75       1.0  0.87619  0.94237  0.72742  1.0000
  H   H76       1.0  0.85464  0.97280  0.70031  1.0000
  O   O238      1.0  0.88233  0.98155  0.71154  1.0000
  H   H77       1.0  0.16503  0.13772  0.57328  1.0000
  H   H78       1.0  0.14990  0.04245  0.57624  1.0000
  O   O239      1.0  0.16898  0.08175  0.58656  1.0000
  H   H79       1.0  0.37428  0.52035  0.52371  1.0000
  H   H80       1.0  0.35300  0.63228  0.53130  1.0000
  O   O240      1.0  0.38486  0.58023  0.52871  1.0000
  H   H81       1.0  0.70268  0.63358  0.89718  1.0000
  H   H82       1.0  0.71406  0.70251  0.87418  1.0000
  O   O241      1.0  0.72045  0.68741  0.89422  1.0000
  H   H83       1.0  0.78818  0.76795  0.45644  1.0000
  H   H84       1.0  0.75541  0.85763  0.47194  1.0000
  O   O242      1.0  0.78989  0.80864  0.47184  1.0000
  H   H85       1.0  0.20250  0.74253  0.62725  1.0000
  H   H86       1.0  0.20175  0.69648  0.66027  1.0000
  O   O243      1.0  0.21607  0.68195  0.64020  1.0000
  H   H87       1.0  0.83561  0.00662  0.93039  1.0000
  H   H88       1.0  0.82113  0.11152  0.92380  1.0000
  O   O244      1.0  0.80610  0.06632  0.93366  1.0000
  H   H89       1.0  0.20926  0.80307  0.44215  1.0000
  H   H90       1.0  0.83015  0.52759  0.69172  1.0000
  O   O245      1.0  0.85502  0.50999  0.70782  1.0000
  H   H91       1.0  0.25327  0.30525  0.68043  1.0000
  H   H92       1.0  0.27148  0.26362  0.64873  1.0000
  O   O246      1.0  0.26155  0.24578  0.66742  1.0000
  H   H93       1.0  0.89037  0.67606  0.63182  1.0000
  H   H94       1.0  0.91583  0.58939  0.61135  1.0000
  O   O247      1.0  0.91651  0.65617  0.61638  1.0000
  H   H95       1.0  0.82395  0.23232  0.63465  1.0000
  H   H96       1.0  0.35586  0.70067  0.44599  1.0000
  O   O248      1.0  0.83432  0.28030  0.64776  1.0000
  H   H97       1.0  0.60723  0.14809  0.56890  1.0000
  H   H98       1.0  0.54810  0.15319  0.57755  1.0000
  O   O249      1.0  0.58540  0.13643  0.58471  1.0000
  H   H99       1.0  0.42611  0.78676  0.76882  1.0000
  H   H100      1.0  0.43677  0.89297  0.76861  1.0000
  O   O250      1.0  0.17642  0.37411  0.96496  1.0000
  H   H101      1.0  0.47375  0.49823  0.02643  1.0000
  H   H102      1.0  0.57753  0.68349  0.97857  1.0000
  O   O251      1.0  0.46075  0.30550  0.05796  1.0000
  H   H103      1.0  0.94242  0.92649  0.64744  1.0000
  H   H104      1.0  0.97136  0.83964  0.62908  1.0000
  O   O252      1.0  0.97687  0.87221  0.64652  1.0000
  H   H105      1.0  0.38982  0.61165  0.00835  1.0000
  H   H106      1.0  0.33657  0.65293  0.99116  1.0000
  O   O253      1.0  0.35887  0.66953  0.00554  1.0000
  H   H107      1.0  0.80802  0.07795  0.97623  1.0000
  H   H108      1.0  0.45912  0.81669  0.66367  1.0000
  O   O254      1.0  0.22019  0.17097  0.44165  1.0000
  H   H109      1.0  0.26206  0.08932  0.88059  1.0000
  H   H110      1.0  0.30911  0.00421  0.86862  1.0000
  O   O255      1.0  0.28223  0.06605  0.86203  1.0000
  H   H111      1.0  0.61587  0.25960  0.69096  1.0000
  H   H112      1.0  0.67460  0.24209  0.69836  1.0000
  O   O256      1.0  0.63866  0.28695  0.70055  1.0000
  H   H113      1.0  0.09814  0.87544  0.91128  1.0000
  H   H114      1.0  0.08083  0.79538  0.89502  1.0000
  O   O257      1.0  0.06831  0.86275  0.90202  1.0000
  H   H115      1.0  0.29499  0.43428  0.92680  1.0000
  H   H116      1.0  0.25210  0.45845  0.95319  1.0000
  O   O258      1.0  0.28731  0.45185  0.94717  1.0000
  H   H117      1.0  0.47833  0.71554  0.05900  1.0000
  H   H118      1.0  0.55387  0.43992  0.03014  1.0000
  O   O259      1.0  0.55019  0.50528  0.02186  1.0000
  H   H119      1.0  0.44200  0.81057  0.71110  1.0000
  H   H120      1.0  0.49568  0.73858  0.70386  1.0000
  O   O260      1.0  0.47300  0.80916  0.70031  1.0000
  H   H121      1.0  0.35826  0.89448  0.94201  1.0000
  H   H122      1.0  0.51136  0.47289  0.84126  1.0000
  O   O261      1.0  0.53425  0.41441  0.83456  1.0000
  H   H123      1.0  0.22506  0.92565  0.66181  1.0000
  H   H124      1.0  0.20210  0.02236  0.65142  1.0000
  O   O262      1.0  0.19647  0.95875  0.64960  1.0000
  H   H125      1.0  0.83580  0.09162  0.58513  1.0000
  H   H126      1.0  0.88513  0.11371  0.57727  1.0000
  O   O263      1.0  0.85052  0.12110  0.57117  1.0000
  H   H127      1.0  0.97034  0.36143  0.76262  1.0000
  H   H128      1.0  0.92221  0.43592  0.77523  1.0000
  O   O264      1.0  0.95986  0.39850  0.78012  1.0000
  H   H129      1.0  0.37975  0.82429  0.48310  1.0000
  H   H130      1.0  0.38113  0.88374  0.50795  1.0000
  O   O265      1.0  0.39250  0.87607  0.48844  1.0000
  H   H131      1.0  0.35411  0.62541  0.60718  1.0000
  H   H132      1.0  0.39422  0.60478  0.63160  1.0000
  O   O266      1.0  0.38189  0.57197  0.61502  1.0000
  H   H133      1.0  0.51699  0.80777  0.49081  1.0000
  H   H134      1.0  0.46274  0.86928  0.48595  1.0000
  O   O267      1.0  0.49570  0.87596  0.49162  1.0000
  H   H135      1.0  0.44139  0.77243  0.93689  1.0000
  H   H136      1.0  0.41845  0.81480  0.90691  1.0000
  O   O268      1.0  0.40938  0.81261  0.92651  1.0000
  H   H137      1.0  0.35321  0.84054  0.71891  1.0000
  H   H138      1.0  0.38270  0.73604  0.73008  1.0000
  O   O269      1.0  0.38291  0.80172  0.72932  1.0000
  H   H139      1.0  0.63815  0.49252  0.95910  1.0000
  H   H140      1.0  0.19641  0.66317  0.96422  1.0000
  O   O270      1.0  0.80349  0.09693  0.99582  1.0000
  H   H141      1.0  0.73946  0.31483  0.53054  1.0000
  H   H142      1.0  0.69519  0.60967  0.02806  1.0000
  O   O271      1.0  0.69609  0.59954  0.00795  1.0000
  H   H143      1.0  0.55043  0.07479  0.45519  1.0000
  H   H144      1.0  0.55041  0.18551  0.44327  1.0000
  O   O272      1.0  0.55917  0.13870  0.45969  1.0000
  H   H145      1.0  0.75114  0.40435  0.70967  1.0000
  H   H146      1.0  0.69240  0.47176  0.71208  1.0000
  O   O273      1.0  0.72641  0.46252  0.71910  1.0000
  H   H147      1.0  0.02780  0.50881  0.73267  1.0000
  H   H148      1.0  0.05459  0.45133  0.70443  1.0000
  O   O274      1.0  0.05666  0.44679  0.72466  1.0000
  H   H149      1.0  0.09783  0.63475  0.70093  1.0000
  H   H150      1.0  0.11454  0.63874  0.73358  1.0000
  O   O275      1.0  0.12792  0.63063  0.71354  1.0000
  H   H151      1.0  0.41423  0.19996  0.93183  1.0000
  H   H152      1.0  0.42793  0.08268  0.93017  1.0000
  O   O276      1.0  0.39995  0.14576  0.92748  1.0000
  H   H153      1.0  0.48745  0.02567  0.80875  1.0000
  H   H154      1.0  0.51238  0.09685  0.79186  1.0000
  O   O277      1.0  0.52026  0.03225  0.80104  1.0000
  H   H155      1.0  0.50366  0.44981  0.60648  1.0000
  H   H156      1.0  0.47273  0.37360  0.61465  1.0000
  O   O278      1.0  0.49958  0.40306  0.62084  1.0000
  H   H157      1.0  0.57853  0.39971  0.94628  1.0000
  H   H158      1.0  0.52496  0.43674  0.96339  1.0000
  O   O279      1.0  0.55113  0.38198  0.95476  1.0000
  H   H159      1.0  0.71461  0.80284  0.99361  1.0000
  H   H160      1.0  0.77467  0.73630  0.99930  1.0000
  O   O280      1.0  0.75037  0.79810  0.00031  1.0000
  H   H161      1.0  0.24620  0.56504  0.48040  1.0000
  H   H162      1.0  0.19155  0.58597  0.46320  1.0000
  O   O281      1.0  0.21116  0.60641  0.47667  1.0000
  H   H163      1.0  0.13323  0.94683  0.06342  1.0000
  H   H164      1.0  0.16822  0.92210  0.03706  1.0000
  O   O282      1.0  0.14594  0.89607  0.04941  1.0000
  H   H165      1.0  0.63419  0.49534  0.67377  1.0000
  H   H166      1.0  0.27467  0.32236  0.45197  1.0000
  O   O283      1.0  0.62610  0.47765  0.69227  1.0000
  H   H167      1.0  0.08752  0.64144  0.45504  1.0000
  H   H168      1.0  0.26041  0.94717  0.45969  1.0000
  O   O284      1.0  0.24854  0.95741  0.47983  1.0000
  H   H169      1.0  0.46709  0.50758  0.64189  1.0000
  H   H170      1.0  0.48274  0.60761  0.64674  1.0000
  O   O285      1.0  0.45704  0.57036  0.65259  1.0000
  H   H171      1.0  0.66577  0.42499  0.79487  1.0000
  H   H172      1.0  0.67709  0.48854  0.81845  1.0000
  O   O286      1.0  0.69458  0.43083  0.80770  1.0000
  H   H173      1.0  0.18681  0.39164  0.03752  1.0000
  H   H174      1.0  0.15600  0.42324  0.06727  1.0000
  O   O287      1.0  0.15142  0.42529  0.04768  1.0000
  H   H175      1.0  0.54701  0.43364  0.47121  1.0000
  H   H176      1.0  0.55124  0.36902  0.49712  1.0000
  O   O288      1.0  0.57141  0.39583  0.48516  1.0000
  H   H177      1.0  0.12960  0.06235  0.00514  1.0000
  H   H178      1.0  0.11332  0.16200  0.98996  1.0000
  O   O289      1.0  0.09800  0.11735  0.00074  1.0000
  H   H179      1.0  0.73694  0.07471  0.93076  1.0000
  H   H180      1.0  0.67766  0.07763  0.94382  1.0000
  O   O290      1.0  0.70027  0.10780  0.93211  1.0000
  H   H181      1.0  0.82464  0.57962  0.98921  1.0000
  H   H182      1.0  0.81085  0.60279  0.02210  1.0000
  O   O291      1.0  0.80495  0.55699  0.00404  1.0000
  H   H183      1.0  0.06527  0.28866  0.51431  1.0000
  H   H184      1.0  0.04932  0.37147  0.53808  1.0000
  O   O292      1.0  0.06593  0.29936  0.53597  1.0000
  H   H185      1.0  0.76524  0.45361  0.90090  1.0000
  H   H186      1.0  0.80128  0.40038  0.92395  1.0000
  O   O293      1.0  0.80141  0.43563  0.90602  1.0000
  H   H187      1.0  0.21353  0.77591  0.86969  1.0000
  H   H188      1.0  0.18346  0.88464  0.86527  1.0000
  O   O294      1.0  0.20899  0.83966  0.87822  1.0000
  H   H189      1.0  0.82927  0.41474  0.76493  1.0000
  H   H190      1.0  0.84856  0.46819  0.74287  1.0000
  O   O295      1.0  0.85630  0.44752  0.76300  1.0000
  H   H191      1.0  0.41561  0.21719  0.87784  1.0000
  H   H192      1.0  0.38043  0.17541  0.89664  1.0000
  O   O296      1.0  0.38205  0.20751  0.87837  1.0000
  H   H193      1.0  0.98411  0.96662  0.86217  1.0000
  H   H194      1.0  0.03683  0.93130  0.87982  1.0000
  O   O297      1.0  0.01529  0.98722  0.86610  1.0000
  H   H195      1.0  0.16878  0.91185  0.90955  1.0000
  H   H196      1.0  0.18984  0.89226  0.93718  1.0000
  O   O298      1.0  0.15589  0.92446  0.92816  1.0000
  H   H197      1.0  0.29464  0.48391  0.63951  1.0000
  H   H198      1.0  0.35110  0.49571  0.62505  1.0000
  O   O299      1.0  0.33292  0.45371  0.63723  1.0000
  H   H199      1.0  0.52628  0.16051  0.65334  1.0000
  H   H200      1.0  0.57135  0.20173  0.64265  1.0000
  O   O300      1.0  0.55876  0.17655  0.65937  1.0000
  H   H201      1.0  0.07297  0.35819  0.88124  1.0000
  H   H202      1.0  0.11182  0.38573  0.90284  1.0000
  O   O301      1.0  0.07560  0.38627  0.89950  1.0000
  H   H203      1.0  0.73828  0.10240  0.87848  1.0000
  H   H204      1.0  0.73690  0.18038  0.85364  1.0000
  O   O302      1.0  0.74811  0.15922  0.87287  1.0000
  H   H205      1.0  0.66215  0.88310  0.62311  1.0000
  H   H206      1.0  0.65301  0.90545  0.65526  1.0000
  O   O303      1.0  0.67854  0.88599  0.64118  1.0000
  H   H207      1.0  0.73722  0.91501  0.64040  1.0000
  H   H208      1.0  0.78441  0.88291  0.62358  1.0000
  O   O304      1.0  0.76838  0.93405  0.63696  1.0000
  H   H209      1.0  0.35476  0.00149  0.46303  1.0000
  H   H210      1.0  0.34829  0.07531  0.48690  1.0000
  O   O305      1.0  0.32839  0.05696  0.47076  1.0000
  H   H211      1.0  0.82078  0.98220  0.76905  1.0000
  H   H212      1.0  0.82282  0.87282  0.76689  1.0000
  O   O306      1.0  0.80758  0.93572  0.75887  1.0000
  H   H213      1.0  0.70785  0.31959  0.82142  1.0000
  H   H214      1.0  0.68630  0.22876  0.81722  1.0000
  O   O307      1.0  0.71263  0.24855  0.82738  1.0000
  H   H215      1.0  0.68697  0.78669  0.77976  1.0000
  H   H216      1.0  0.69790  0.87984  0.78942  1.0000
  O   O308      1.0  0.69328  0.82057  0.79599  1.0000
  H   H217      1.0  0.27118  0.34633  0.88091  1.0000
  H   H218      1.0  0.24495  0.26491  0.88912  1.0000
  O   O309      1.0  0.24296  0.31758  0.87673  1.0000
  H   H219      1.0  0.65038  0.01380  0.98655  1.0000
  H   H220      1.0  0.61186  0.00071  0.96030  1.0000
  O   O310      1.0  0.63757  0.03545  0.96566  1.0000
  H   H221      1.0  0.19823  0.75002  0.54660  1.0000
  H   H222      1.0  0.19466  0.85822  0.53570  1.0000
  O   O311      1.0  0.20564  0.81346  0.55140  1.0000
  H   H223      1.0  0.35128  0.40137  0.00168  1.0000
  H   H224      1.0  0.45684  0.22832  0.02906  1.0000
  O   O312      1.0  0.29855  0.27126  0.78707  1.0000
  H   H225      1.0  0.16194  0.77940  0.02153  1.0000
  H   H226      1.0  0.63838  0.66063  0.75908  1.0000
  O   O313      1.0  0.60367  0.70751  0.75628  1.0000
  H   H227      1.0  0.24486  0.79737  0.96740  1.0000
  H   H228      1.0  0.26701  0.87923  0.96004  1.0000
  O   O314      1.0  0.23345  0.86748  0.96499  1.0000
  H   H229      1.0  0.08465  0.75030  0.57290  1.0000
  H   H230      1.0  0.11866  0.66161  0.55515  1.0000
  O   O315      1.0  0.08269  0.68904  0.56120  1.0000
  H   H231      1.0  0.51483  0.66045  0.93036  1.0000
  H   H232      1.0  0.51171  0.70267  0.96152  1.0000
  O   O316      1.0  0.49271  0.67466  0.94825  1.0000
  H   H233      1.0  0.79614  0.72632  0.62371  1.0000
  H   H234      1.0  0.77929  0.79945  0.59796  1.0000
  O   O317      1.0  0.77897  0.73803  0.60603  1.0000
  H   H235      1.0  0.00772  0.15567  0.48854  1.0000
  H   H236      1.0  0.99749  0.12098  0.51664  1.0000
  O   O318      1.0  0.99893  0.17984  0.50725  1.0000
  H   H237      1.0  0.41452  0.30130  0.50674  1.0000
  H   H238      1.0  0.43403  0.24821  0.48008  1.0000
  O   O319      1.0  0.42945  0.23454  0.49904  1.0000
  H   H239      1.0  0.89795  0.10439  0.65170  1.0000
  H   H240      1.0  0.85631  0.05802  0.63894  1.0000
  O   O320      1.0  0.89070  0.04256  0.64911  1.0000
  H   H241      1.0  0.50186  0.92469  0.01668  1.0000
  H   H242      1.0  0.46212  0.89239  0.99715  1.0000
  O   O321      1.0  0.48663  0.86895  0.01315  1.0000
  H   H243      1.0  0.14105  0.64584  0.01723  1.0000
  H   H244      1.0  0.53952  0.54950  0.03852  1.0000
  O   O322      1.0  0.11762  0.60450  0.01974  1.0000
  H   H245      1.0  0.44678  0.42914  0.04131  1.0000
  H   H246      1.0  0.06181  0.36735  0.83794  1.0000
  O   O323      1.0  0.43841  0.49151  0.03209  1.0000
  H   H247      1.0  0.46682  0.76823  0.87008  1.0000
  H   H248      1.0  0.41679  0.78904  0.85306  1.0000
  O   O324      1.0  0.43344  0.75344  0.87023  1.0000
  H   H249      1.0  0.10151  0.86496  0.64670  1.0000
  H   H250      1.0  0.65897  0.88677  0.03077  1.0000
  O   O325      1.0  0.08557  0.83347  0.63263  1.0000
  H   H251      1.0  0.15626  0.63369  0.94895  1.0000
  H   H252      1.0  0.27134  0.85203  0.88194  1.0000
  O   O326      1.0  0.30518  0.86346  0.88527  1.0000
  H   H253      1.0  0.72002  0.71542  0.74247  1.0000
  H   H254      1.0  0.45979  0.81073  0.58857  1.0000
  O   O327      1.0  0.42866  0.79524  0.58275  1.0000
  H   H255      1.0  0.03597  0.35963  0.92740  1.0000
  H   H256      1.0  0.00668  0.30102  0.94374  1.0000
  O   O328      1.0  0.02755  0.34384  0.94683  1.0000
  H   H257      1.0  0.60799  0.45731  0.50468  1.0000
  H   H258      1.0  0.64448  0.48026  0.52862  1.0000
  O   O329      1.0  0.62577  0.50301  0.51197  1.0000
  H   H259      1.0  0.44877  0.27282  0.58994  1.0000
  H   H260      1.0  0.42683  0.29537  0.61997  1.0000
  O   O330      1.0  0.42379  0.32238  0.60021  1.0000
  H   H261      1.0  0.44539  0.58764  0.81424  1.0000
  H   H262      1.0  0.40884  0.55970  0.79177  1.0000
  O   O331      1.0  0.43115  0.60792  0.79526  1.0000
  H   H263      1.0  0.53396  0.23643  0.77339  1.0000
  H   H264      1.0  0.48339  0.22754  0.75891  1.0000
  O   O332      1.0  0.50770  0.20517  0.77625  1.0000
  H   H265      1.0  0.21541  0.19107  0.66223  1.0000
  H   H266      1.0  0.17678  0.15028  0.67949  1.0000
  O   O333      1.0  0.18794  0.15728  0.65958  1.0000
  H   H267      1.0  0.30806  0.14447  0.97212  1.0000
  H   H268      1.0  0.34183  0.14481  0.94311  1.0000
  O   O334      1.0  0.31267  0.12632  0.95178  1.0000
  H   H269      1.0  0.34404  0.15037  0.45016  1.0000
  H   H270      1.0  0.37854  0.19889  0.43557  1.0000
  O   O335      1.0  0.34355  0.21003  0.44071  1.0000
  H   H271      1.0  0.04426  0.61223  0.94911  1.0000
  H   H272      1.0  0.00808  0.61930  0.92233  1.0000
  O   O336      1.0  0.00740  0.63509  0.94154  1.0000
  H   H273      1.0  0.78395  0.35448  0.02433  1.0000
  H   H274      1.0  0.93694  0.67871  0.83119  1.0000
  O   O337      1.0  0.75986  0.39971  0.03883  1.0000
  H   H275      1.0  0.18067  0.21401  0.77030  1.0000
  H   H276      1.0  0.18310  0.28505  0.74765  1.0000
  O   O338      1.0  0.19416  0.21822  0.75126  1.0000
  H   H277      1.0  0.87391  0.71705  0.79399  1.0000
  H   H278      1.0  0.82242  0.68319  0.78542  1.0000
  O   O339      1.0  0.84478  0.72504  0.77899  1.0000
  H   H279      1.0  0.82093  0.10493  0.77973  1.0000
  H   H280      1.0  0.88241  0.06910  0.77957  1.0000
  O   O340      1.0  0.85159  0.04276  0.78210  1.0000
  H   H281      1.0  0.55084  0.02519  0.92691  1.0000
  H   H282      1.0  0.57631  0.90998  0.92899  1.0000
  O   O341      1.0  0.55563  0.96789  0.93968  1.0000
  H   H283      1.0  0.11666  0.11599  0.86045  1.0000
  H   H284      1.0  0.11248  0.22769  0.86357  1.0000
  O   O342      1.0  0.10845  0.17114  0.87291  1.0000
  H   H285      1.0  0.88928  0.31347  0.64309  1.0000
  H   H286      1.0  0.95183  0.28074  0.64488  1.0000
  O   O343      1.0  0.92000  0.33895  0.64295  1.0000
  H   H287      1.0  0.72441  0.62790  0.57355  1.0000
  H   H288      1.0  0.75902  0.59080  0.54581  1.0000
  O   O344      1.0  0.72424  0.61488  0.55447  1.0000
  H   H289      1.0  0.80071  0.90516  0.57482  1.0000
  H   H290      1.0  0.86300  0.87167  0.57717  1.0000
  O   O345      1.0  0.83166  0.91877  0.58264  1.0000
  H   H291      1.0  0.46684  0.26225  0.80989  1.0000
  H   H292      1.0  0.09190  0.13159  0.79572  1.0000
  O   O346      1.0  0.06259  0.11230  0.79008  1.0000
  H   H293      1.0  0.48386  0.60171  0.55253  1.0000
  H   H294      1.0  0.07865  0.48512  0.66285  1.0000
  O   O347      1.0  0.05750  0.43984  0.66819  1.0000
  H   H295      1.0  0.00975  0.05538  0.98685  1.0000
  H   H296      1.0  0.06384  0.06757  0.97792  1.0000
  O   O348      1.0  0.03549  0.03876  0.97309  1.0000
  H   H297      1.0  0.66929  0.66763  0.62036  1.0000
  H   H298      1.0  0.72159  0.69691  0.61286  1.0000
  O   O349      1.0  0.70275  0.65050  0.60897  1.0000
  H   H299      1.0  0.15241  0.35997  0.60820  1.0000
  H   H300      1.0  0.16469  0.33286  0.57751  1.0000
  O   O350      1.0  0.15824  0.39374  0.58953  1.0000
  H   H301      1.0  0.84171  0.23455  0.85711  1.0000
  H   H302      1.0  0.80454  0.17738  0.86530  1.0000
  O   O351      1.0  0.84147  0.16840  0.86160  1.0000
  H   H303      1.0  0.61045  0.29543  0.42357  1.0000
  H   H304      1.0  0.61300  0.40233  0.41646  1.0000
  O   O352      1.0  0.63301  0.33525  0.41916  1.0000
  H   H305      1.0  0.34444  0.54660  0.47359  1.0000
  H   H306      1.0  0.96800  0.41937  0.45997  1.0000
  O   O353      1.0  0.32163  0.49972  0.47631  1.0000
  H   H307      1.0  0.82618  0.04402  0.00619  1.0000
  H   H308      1.0  0.24308  0.10918  0.44868  1.0000
  O   O354      1.0  0.13815  0.62387  0.82715  1.0000
  H   H309      1.0  0.46746  0.16245  0.42983  1.0000
  H   H310      1.0  0.44600  0.28597  0.43704  1.0000
  O   O355      1.0  0.43947  0.22332  0.42837  1.0000
  H   H311      1.0  0.30958  0.99178  0.69330  1.0000
  H   H312      1.0  0.27933  0.94489  0.71249  1.0000
  O   O356      1.0  0.30010  0.93077  0.69504  1.0000
  H   H313      1.0  0.65949  0.26961  0.60083  1.0000
  H   H314      1.0  0.67761  0.22096  0.57127  1.0000
  O   O357      1.0  0.68980  0.25667  0.58819  1.0000
  H   H315      1.0  0.22930  0.89551  0.75214  1.0000
  H   H316      1.0  0.25032  0.78094  0.74838  1.0000
  O   O358      1.0  0.23221  0.83243  0.76128  1.0000
  H   H317      1.0  0.08098  0.32845  0.46621  1.0000
  H   H318      1.0  0.11337  0.22922  0.47890  1.0000
  O   O359      1.0  0.08052  0.27782  0.47952  1.0000
  H   H319      1.0  0.81165  0.65641  0.52083  1.0000
  H   H320      1.0  0.80145  0.75219  0.50272  1.0000
  O   O360      1.0  0.81425  0.72310  0.52160  1.0000
  H   H321      1.0  0.38018  0.68732  0.92408  1.0000
  H   H322      1.0  0.33501  0.73209  0.90020  1.0000
  O   O361      1.0  0.34793  0.68260  0.91518  1.0000
  H   H323      1.0  0.33053  0.84020  0.63015  1.0000
  H   H324      1.0  0.33280  0.90598  0.66075  1.0000
  O   O362      1.0  0.34386  0.89170  0.64119  1.0000
  H   H325      1.0  0.91422  0.13025  0.98710  1.0000
  H   H326      1.0  0.92879  0.12036  0.01853  1.0000
  O   O363      1.0  0.93816  0.08427  0.99977  1.0000
  H   H327      1.0  0.52086  0.94817  0.73002  1.0000
  H   H328      1.0  0.49208  0.90804  0.70546  1.0000
  O   O364      1.0  0.50813  0.96036  0.70946  1.0000
  H   H329      1.0  0.90130  0.57674  0.97039  1.0000
  H   H330      1.0  0.84966  0.62798  0.95127  1.0000
  O   O365      1.0  0.86459  0.61672  0.96977  1.0000
  H   H331      1.0  0.29375  0.58842  0.95980  1.0000
  H   H332      1.0  0.30877  0.68140  0.94962  1.0000
  O   O366      1.0  0.29108  0.65645  0.96512  1.0000
  H   H333      1.0  0.51269  0.21752  0.93563  1.0000
  H   H334      1.0  0.56598  0.20068  0.91668  1.0000
  O   O367      1.0  0.53763  0.17387  0.92231  1.0000
  H   H335      1.0  0.39203  0.06064  0.04711  1.0000
  H   H336      1.0  0.39821  0.00247  0.01977  1.0000
  O   O368      1.0  0.38812  0.06857  0.02606  1.0000
  H   H337      1.0  0.33724  0.44533  0.89247  1.0000
  H   H338      1.0  0.34349  0.32656  0.88944  1.0000
  O   O369      1.0  0.31842  0.39354  0.89578  1.0000
  H   H339      1.0  0.71010  0.95376  0.49553  1.0000
  H   H340      1.0  0.68529  0.98302  0.46531  1.0000
  O   O370      1.0  0.69731  0.92105  0.47765  1.0000
  H   H341      1.0  0.66994  0.39634  0.94067  1.0000
  H   H342      1.0  0.17058  0.13283  0.44779  1.0000
  O   O371      1.0  0.13988  0.11521  0.45137  1.0000
  H   H343      1.0  0.98325  0.49542  0.83972  1.0000
  H   H344      1.0  0.98000  0.43072  0.81178  1.0000
  O   O372      1.0  0.99490  0.42163  0.83293  1.0000
  H   H345      1.0  0.60410  0.32084  0.75846  1.0000
  H   H346      1.0  0.62779  0.24212  0.73647  1.0000
  O   O373      1.0  0.60304  0.25691  0.75203  1.0000
  H   H347      1.0  0.58184  0.40378  0.86677  1.0000
  H   H348      1.0  0.92007  0.02242  0.92385  1.0000
  O   O374      1.0  0.91697  0.95339  0.92145  1.0000
  H   H349      1.0  0.70510  0.81808  0.90690  1.0000
  H   H350      1.0  0.67993  0.92383  0.92227  1.0000
  O   O375      1.0  0.68840  0.89231  0.90431  1.0000
  Ti  Ti101     1.0  0.98894  0.67851  0.06694  1.0000
  Ti  Ti102     1.0  0.99193  0.44586  0.07047  1.0000
  O   O376      1.0  0.95197  0.82955  0.06899  1.0000
  O   O377      1.0  0.91436  0.51154  0.07024  1.0000
  O   O378      1.0  0.51297  0.58378  0.07317  1.0000
  Ti  Ti103     1.0  0.87942  0.66969  0.07094  1.0000
  Ti  Ti104     1.0  0.88201  0.90641  0.07569  1.0000
  O   O379      1.0  0.84992  0.80728  0.07329  1.0000
  O   O380      1.0  0.81095  0.48224  0.07466  1.0000
  O   O381      1.0  0.40412  0.57391  0.07858  1.0000
  Ti  Ti105     1.0  0.78035  0.63634  0.07792  1.0000
  Ti  Ti106     1.0  0.77518  0.89530  0.08625  1.0000
  O   O382      1.0  0.74769  0.78135  0.08326  1.0000
  O   O383      1.0  0.70098  0.46476  0.08402  1.0000
  O   O384      1.0  0.30289  0.53369  0.08536  1.0000
  Ti  Ti107     1.0  0.67576  0.61096  0.08801  1.0000
  Ti  Ti108     1.0  0.67884  0.85127  0.09242  1.0000
  O   O385      1.0  0.63945  0.74784  0.09033  1.0000
  O   O386      1.0  0.59997  0.93633  0.09086  1.0000
  O   O387      1.0  0.19979  0.50669  0.09459  1.0000
  O   O388      1.0  0.04336  0.69862  0.08799  1.0000
  Ti  Ti109     1.0  0.57181  0.58158  0.09239  1.0000
  Ti  Ti110     1.0  0.57088  0.83802  0.09798  1.0000
  O   O389      1.0  0.53709  0.72995  0.09919  1.0000
  O   O390      1.0  0.49908  0.90966  0.10289  1.0000
  O   O391      1.0  0.09904  0.47112  0.10171  1.0000
  O   O392      1.0  0.94220  0.67192  0.09497  1.0000
  Ti  Ti111     1.0  0.47108  0.56057  0.10366  1.0000
  Ti  Ti112     1.0  0.46933  0.80895  0.10638  1.0000
  O   O393      1.0  0.43644  0.70279  0.10746  1.0000
  O   O394      1.0  0.39756  0.89107  0.10800  1.0000
  O   O395      1.0  0.99712  0.94480  0.10721  1.0000
  O   O396      1.0  0.83986  0.65674  0.10507  1.0000
  Ti  Ti113     1.0  0.36208  0.54134  0.10897  1.0000
  Ti  Ti114     1.0  0.36523  0.78896  0.11448  1.0000
  O   O397      1.0  0.33262  0.68267  0.11299  1.0000
  O   O398      1.0  0.29523  0.86252  0.11600  1.0000
  O   O399      1.0  0.89281  0.90398  0.11469  1.0000
  O   O400      1.0  0.73271  0.62068  0.11408  1.0000
  Ti  Ti115     1.0  0.25829  0.51521  0.11265  1.0000
  Ti  Ti116     1.0  0.26235  0.75422  0.12241  1.0000
  O   O401      1.0  0.22979  0.65012  0.12290  1.0000
  O   O402      1.0  0.18667  0.83606  0.12348  1.0000
  O   O403      1.0  0.78439  0.88005  0.12476  1.0000
  O   O404      1.0  0.63292  0.58282  0.12022  1.0000
  Ti  Ti117     1.0  0.15850  0.47590  0.12134  1.0000
  Ti  Ti118     1.0  0.15315  0.72850  0.12827  1.0000
  O   O405      1.0  0.12532  0.62273  0.12889  1.0000
  O   O406      1.0  0.08806  0.80838  0.12441  1.0000
  O   O407      1.0  0.68544  0.84375  0.12956  1.0000
  O   O408      1.0  0.52768  0.56203  0.12578  1.0000
  Ti  Ti119     1.0  0.05723  0.46243  0.13006  1.0000
  Ti  Ti120     1.0  0.05239  0.69845  0.12520  1.0000
  O   O409      1.0  0.01970  0.59745  0.13122  1.0000
  O   O410      1.0  0.98031  0.78349  0.13453  1.0000
  O   O411      1.0  0.58067  0.83376  0.13875  1.0000
  O   O412      1.0  0.41801  0.54417  0.13391  1.0000
  Ti  Ti121     1.0  0.95477  0.91946  0.14073  1.0000
  Ti  Ti122     1.0  0.94606  0.67187  0.13623  1.0000
  O   O413      1.0  0.91938  0.56994  0.13943  1.0000
  O   O414      1.0  0.87952  0.75317  0.14002  1.0000
  O   O415      1.0  0.47823  0.80413  0.14744  1.0000
  O   O416      1.0  0.32462  0.50914  0.13920  1.0000
  Ti  Ti123     1.0  0.85203  0.89944  0.14611  1.0000
  Ti  Ti124     1.0  0.84392  0.64658  0.14267  1.0000
  O   O417      1.0  0.81631  0.54254  0.15086  1.0000
  O   O418      1.0  0.77628  0.72259  0.14919  1.0000
  O   O419      1.0  0.37344  0.79221  0.15180  1.0000
  O   O420      1.0  0.21038  0.50170  0.14790  1.0000
  Ti  Ti125     1.0  0.74643  0.86304  0.15640  1.0000
  Ti  Ti126     1.0  0.74092  0.60969  0.15224  1.0000
  O   O421      1.0  0.70836  0.51059  0.15777  1.0000
  O   O422      1.0  0.66651  0.69780  0.16256  1.0000
  O   O423      1.0  0.27008  0.75445  0.16037  1.0000
  O   O424      1.0  0.11232  0.45791  0.15358  1.0000
  Ti  Ti127     1.0  0.63749  0.84055  0.15922  1.0000
  Ti  Ti128     1.0  0.63633  0.59477  0.15815  1.0000
  O   O425      1.0  0.60496  0.48280  0.16357  1.0000
  O   O426      1.0  0.56611  0.66789  0.16679  1.0000
  O   O427      1.0  0.16427  0.74086  0.16629  1.0000
  O   O428      1.0  0.00770  0.92864  0.16378  1.0000
  Ti  Ti129     1.0  0.53370  0.80671  0.17122  1.0000
  Ti  Ti130     1.0  0.53387  0.56154  0.17075  1.0000
  O   O429      1.0  0.50028  0.46124  0.17178  1.0000
  O   O430      1.0  0.46255  0.64440  0.17305  1.0000
  O   O431      1.0  0.06093  0.71487  0.17178  1.0000
  O   O432      1.0  0.90493  0.90903  0.16743  1.0000
  Ti  Ti131     1.0  0.43206  0.78187  0.17515  1.0000
  Ti  Ti132     1.0  0.43069  0.53674  0.17219  1.0000
  O   O433      1.0  0.39722  0.93735  0.17893  1.0000
  O   O434      1.0  0.36081  0.61835  0.17917  1.0000
  O   O435      1.0  0.95287  0.69035  0.17948  1.0000
  O   O436      1.0  0.80582  0.85757  0.17571  1.0000
  Ti  Ti133     1.0  0.33026  0.74636  0.18661  1.0000
  Ti  Ti134     1.0  0.32687  0.50525  0.17934  1.0000
  O   O437      1.0  0.29473  0.90315  0.18280  1.0000
  O   O438      1.0  0.25203  0.59454  0.18416  1.0000
  O   O439      1.0  0.85422  0.65098  0.18907  1.0000
  O   O440      1.0  0.69470  0.85865  0.18503  1.0000
  Ti  Ti135     1.0  0.22254  0.73895  0.18945  1.0000
  Ti  Ti136     1.0  0.21787  0.49342  0.18629  1.0000
  O   O441      1.0  0.19375  0.87600  0.19223  1.0000
  O   O442      1.0  0.14611  0.56960  0.19548  1.0000
  O   O443      1.0  0.75099  0.61265  0.19815  1.0000
  O   O444      1.0  0.59000  0.83136  0.19220  1.0000
  Ti  Ti137     1.0  0.11345  0.70752  0.19442  1.0000
  Ti  Ti138     1.0  0.11746  0.45272  0.19650  1.0000
  O   O445      1.0  0.09147  0.85923  0.20138  1.0000
  O   O446      1.0  0.04563  0.53390  0.19750  1.0000
  O   O447      1.0  0.64538  0.58861  0.20530  1.0000
  O   O448      1.0  0.49100  0.79494  0.20029  1.0000
  Ti  Ti139     1.0  0.01072  0.69423  0.19986  1.0000
  Ti  Ti140     1.0  0.01626  0.93682  0.20348  1.0000
  O   O449      1.0  0.98345  0.82967  0.20703  1.0000
  O   O450      1.0  0.94501  0.50797  0.21065  1.0000
  O   O451      1.0  0.54265  0.55754  0.21155  1.0000
  O   O452      1.0  0.38490  0.77783  0.20542  1.0000
  Ti  Ti141     1.0  0.90975  0.66045  0.21079  1.0000
  Ti  Ti142     1.0  0.91365  0.90542  0.21489  1.0000
  O   O453      1.0  0.88272  0.80632  0.21271  1.0000
  O   O454      1.0  0.83770  0.47716  0.21953  1.0000
  O   O455      1.0  0.43672  0.53671  0.21663  1.0000
  O   O456      1.0  0.28231  0.74395  0.21262  1.0000
  Ti  Ti143     1.0  0.80567  0.64025  0.21571  1.0000
  Ti  Ti144     1.0  0.80740  0.88511  0.21819  1.0000
  O   O457      1.0  0.77506  0.77775  0.22215  1.0000
  O   O458      1.0  0.73103  0.44806  0.22091  1.0000
  O   O459      1.0  0.33632  0.51128  0.22194  1.0000
  O   O460      1.0  0.17844  0.71067  0.21825  1.0000
  Ti  Ti145     1.0  0.70417  0.58247  0.22775  1.0000
  Ti  Ti146     1.0  0.69628  0.85751  0.22506  1.0000
  O   O461      1.0  0.67353  0.75003  0.22930  1.0000
  O   O462      1.0  0.62747  0.93183  0.22849  1.0000
  O   O463      1.0  0.23130  0.49011  0.22919  1.0000
  O   O464      1.0  0.07142  0.69957  0.22541  1.0000
  Ti  Ti147     1.0  0.60400  0.56200  0.23336  1.0000
  Ti  Ti148     1.0  0.60064  0.81679  0.23026  1.0000
  O   O465      1.0  0.56982  0.71159  0.23547  1.0000
  O   O466      1.0  0.52980  0.89482  0.24070  1.0000
  O   O467      1.0  0.12873  0.44739  0.23746  1.0000
  O   O468      1.0  0.97116  0.66807  0.23177  1.0000
  Ti  Ti149     1.0  0.49524  0.54004  0.24019  1.0000
  Ti  Ti150     1.0  0.49357  0.79012  0.24090  1.0000
  O   O469      1.0  0.46178  0.68722  0.24131  1.0000
  O   O470      1.0  0.42506  0.87556  0.24454  1.0000
  O   O471      1.0  0.02472  0.93472  0.24349  1.0000
  O   O472      1.0  0.86698  0.64118  0.24154  1.0000
  Ti  Ti151     1.0  0.39263  0.51746  0.24719  1.0000
  Ti  Ti152     1.0  0.38972  0.76645  0.24648  1.0000
  O   O473      1.0  0.36053  0.66271  0.24962  1.0000
  O   O474      1.0  0.32163  0.84697  0.24834  1.0000
  O   O475      1.0  0.91886  0.89828  0.25408  1.0000
  O   O476      1.0  0.76272  0.60250  0.24844  1.0000
  Ti  Ti153     1.0  0.29168  0.49669  0.25401  1.0000
  Ti  Ti154     1.0  0.28686  0.74778  0.25585  1.0000
  O   O477      1.0  0.25850  0.63380  0.26034  1.0000
  O   O478      1.0  0.21998  0.81984  0.26048  1.0000
  O   O479      1.0  0.81592  0.87522  0.25986  1.0000
  O   O480      1.0  0.66253  0.56936  0.25780  1.0000
  Ti  Ti155     1.0  0.19093  0.46656  0.26030  1.0000
  Ti  Ti156     1.0  0.18422  0.70603  0.25760  1.0000
  O   O481      1.0  0.15214  0.60898  0.26203  1.0000
  O   O482      1.0  0.11828  0.78857  0.26381  1.0000
  O   O483      1.0  0.71001  0.85187  0.26594  1.0000
  O   O484      1.0  0.55616  0.55465  0.26299  1.0000
  Ti  Ti157     1.0  0.08941  0.94338  0.27104  1.0000
  Ti  Ti158     1.0  0.08012  0.68689  0.26375  1.0000
  O   O485      1.0  0.05090  0.57483  0.26988  1.0000
  O   O486      1.0  0.01114  0.76306  0.27133  1.0000
  O   O487      1.0  0.61354  0.80675  0.27586  1.0000
  O   O488      1.0  0.45080  0.51119  0.26830  1.0000
  Ti  Ti159     1.0  0.98660  0.90678  0.27156  1.0000
  Ti  Ti160     1.0  0.98314  0.64906  0.27421  1.0000
  O   O489      1.0  0.94684  0.54971  0.27885  1.0000
  O   O490      1.0  0.90770  0.73812  0.28016  1.0000
  O   O491      1.0  0.50394  0.78197  0.28095  1.0000
  O   O492      1.0  0.34961  0.49799  0.27815  1.0000
  Ti  Ti161     1.0  0.87704  0.88958  0.28647  1.0000
  Ti  Ti162     1.0  0.87728  0.62932  0.28016  1.0000
  O   O493      1.0  0.84609  0.51629  0.28515  1.0000
  O   O494      1.0  0.80628  0.71099  0.28507  1.0000
  O   O495      1.0  0.40298  0.76510  0.28754  1.0000
  O   O496      1.0  0.24402  0.47431  0.28239  1.0000
  Ti  Ti163     1.0  0.77437  0.85523  0.28747  1.0000
  Ti  Ti164     1.0  0.77162  0.60890  0.29013  1.0000
  O   O497      1.0  0.74278  0.50234  0.29408  1.0000
  O   O498      1.0  0.70425  0.68259  0.29382  1.0000
  O   O499      1.0  0.30037  0.73900  0.29492  1.0000
  O   O500      1.0  0.14410  0.95231  0.29130  1.0000
  Ti  Ti165     1.0  0.67108  0.81866  0.29760  1.0000
  Ti  Ti166     1.0  0.67110  0.55695  0.30177  1.0000
  O   O501      1.0  0.63495  0.46226  0.30225  1.0000
  O   O502      1.0  0.59647  0.65625  0.30143  1.0000
  O   O503      1.0  0.19557  0.70912  0.30258  1.0000
  O   O504      1.0  0.04238  0.91273  0.29578  1.0000
  Ti  Ti167     1.0  0.56411  0.80555  0.30302  1.0000
  Ti  Ti168     1.0  0.56664  0.55803  0.30562  1.0000
  O   O505      1.0  0.53245  0.93795  0.30497  1.0000
  O   O506      1.0  0.49153  0.62518  0.31064  1.0000
  O   O507      1.0  0.09794  0.68201  0.30993  1.0000
  O   O508      1.0  0.93650  0.89295  0.30600  1.0000
  Ti  Ti169     1.0  0.46111  0.76226  0.30854  1.0000
  Ti  Ti170     1.0  0.46187  0.51738  0.31414  1.0000
  O   O509      1.0  0.42947  0.91657  0.31660  1.0000
  O   O510      1.0  0.38824  0.59733  0.31546  1.0000
  O   O511      1.0  0.99379  0.65226  0.31607  1.0000
  O   O512      1.0  0.82575  0.86680  0.31152  1.0000
  Ti  Ti171     1.0  0.35591  0.74627  0.31874  1.0000
  Ti  Ti172     1.0  0.35786  0.49643  0.32310  1.0000
  O   O513      1.0  0.32519  0.88343  0.32042  1.0000
  O   O514      1.0  0.28513  0.57493  0.32565  1.0000
  O   O515      1.0  0.88562  0.62360  0.32564  1.0000
  O   O516      1.0  0.72768  0.82741  0.31949  1.0000
  Ti  Ti173     1.0  0.24982  0.71372  0.32491  1.0000
  Ti  Ti174     1.0  0.25678  0.46308  0.33032  1.0000
  O   O517      1.0  0.22033  0.86347  0.32729  1.0000
  O   O518      1.0  0.18403  0.55023  0.33086  1.0000
  O   O519      1.0  0.78136  0.60577  0.33262  1.0000
  O   O520      1.0  0.62361  0.80434  0.32787  1.0000
  Ti  Ti175     1.0  0.15129  0.69151  0.33203  1.0000
  Ti  Ti176     1.0  0.15066  0.93822  0.33268  1.0000
  O   O521      1.0  0.11954  0.83880  0.33585  1.0000
  O   O522      1.0  0.07915  0.52146  0.33833  1.0000
  O   O523      1.0  0.67422  0.58071  0.33991  1.0000
  O   O524      1.0  0.51761  0.78398  0.33458  1.0000
  Ti  Ti177     1.0  0.05145  0.66570  0.33933  1.0000
  Ti  Ti178     1.0  0.04618  0.91812  0.34266  1.0000
  O   O525      1.0  0.01823  0.80963  0.34282  1.0000
  O   O526      1.0  0.97571  0.49181  0.34641  1.0000
  O   O527      1.0  0.57147  0.54927  0.34592  1.0000
  O   O528      1.0  0.41519  0.74823  0.33953  1.0000
  Ti  Ti179     1.0  0.94411  0.64525  0.34356  1.0000
  Ti  Ti180     1.0  0.94410  0.88879  0.34573  1.0000
  O   O529      1.0  0.91248  0.77189  0.35152  1.0000
  O   O530      1.0  0.87024  0.46311  0.35489  1.0000
  O   O531      1.0  0.46919  0.51978  0.35161  1.0000
  O   O532      1.0  0.31169  0.72335  0.34886  1.0000
  Ti  Ti181     1.0  0.83426  0.60560  0.35557  1.0000
  Ti  Ti182     1.0  0.83795  0.86438  0.35398  1.0000
  O   O533      1.0  0.80945  0.75329  0.35543  1.0000
  O   O534      1.0  0.76359  0.93945  0.35740  1.0000
  O   O535      1.0  0.36868  0.48994  0.36210  1.0000
  O   O536      1.0  0.21246  0.69829  0.35763  1.0000
  Ti  Ti183     1.0  0.73413  0.58690  0.36487  1.0000
  Ti  Ti184     1.0  0.73881  0.82193  0.35861  1.0000
  O   O537      1.0  0.69903  0.73320  0.36410  1.0000
  O   O538      1.0  0.66384  0.91374  0.36349  1.0000
  O   O539      1.0  0.26860  0.45441  0.36887  1.0000
  O   O540      1.0  0.10758  0.67194  0.36342  1.0000
  Ti  Ti185     1.0  0.63371  0.55340  0.37148  1.0000
  Ti  Ti186     1.0  0.62699  0.81651  0.36694  1.0000
  O   O541      1.0  0.59869  0.70478  0.37075  1.0000
  O   O542      1.0  0.55526  0.88741  0.37609  1.0000
  O   O543      1.0  0.15958  0.93280  0.37436  1.0000
  O   O544      1.0  0.00215  0.65603  0.36910  1.0000
  Ti  Ti187     1.0  0.53442  0.51903  0.37825  1.0000
  Ti  Ti188     1.0  0.52658  0.77197  0.37143  1.0000
  O   O545      1.0  0.49633  0.67484  0.38053  1.0000
  O   O546      1.0  0.45787  0.85411  0.38254  1.0000
  O   O547      1.0  0.05495  0.91287  0.38203  1.0000
  O   O548      1.0  0.89739  0.61606  0.37808  1.0000
  Ti  Ti189     1.0  0.42803  0.49371  0.38581  1.0000
  Ti  Ti190     1.0  0.42503  0.75182  0.37861  1.0000
  O   O549      1.0  0.39666  0.65180  0.38743  1.0000
  O   O550      1.0  0.35115  0.83234  0.38600  1.0000
  O   O551      1.0  0.95307  0.88641  0.38740  1.0000
  O   O552      1.0  0.79098  0.60251  0.38621  1.0000
  Ti  Ti191     1.0  0.32508  0.47187  0.39650  1.0000
  Ti  Ti192     1.0  0.31998  0.72592  0.38674  1.0000
  O   O553      1.0  0.29005  0.61744  0.39773  1.0000
  O   O554      1.0  0.24954  0.79975  0.39651  1.0000
  O   O555      1.0  0.84975  0.87030  0.39231  1.0000
  O   O556      1.0  0.69128  0.55755  0.39192  1.0000
  Ti  Ti193     1.0  0.21694  0.94875  0.39833  1.0000
  Ti  Ti194     1.0  0.21875  0.69971  0.39636  1.0000
  O   O557      1.0  0.18619  0.59477  0.40310  1.0000
  O   O558      1.0  0.14504  0.77843  0.40356  1.0000
  O   O559      1.0  0.58748  0.53528  0.39965  1.0000
  Ti  Ti195     1.0  0.11280  0.93283  0.40497  1.0000
  Ti  Ti196     1.0  0.11561  0.67699  0.40523  1.0000
  O   O560      1.0  0.08202  0.57111  0.40691  1.0000
  O   O561      1.0  0.04266  0.74944  0.41304  1.0000
  O   O562      1.0  0.48740  0.50572  0.40544  1.0000
  Ti  Ti197     1.0  0.00863  0.90334  0.41869  1.0000
  Ti  Ti198     1.0  0.01144  0.65276  0.40753  1.0000
  O   O563      1.0  0.97791  0.54113  0.41146  1.0000
  O   O564      1.0  0.93530  0.72207  0.41757  1.0000
  O   O565      1.0  0.38185  0.48744  0.41496  1.0000
  Ti  Ti199     1.0  0.90912  0.86251  0.41421  1.0000
  Ti  Ti200     1.0  0.90829  0.60266  0.41582  1.0000
  O   O566      1.0  0.88213  0.50569  0.42794  1.0000
  O   O567      1.0  0.27859  0.45649  0.42162  1.0000
  O   O568      1.0  0.01660  0.54861  0.06346  1.0000
  O   O569      1.0  0.61614  0.60592  0.06717  1.0000
  O   O570      1.0  0.72459  0.62532  0.06092  1.0000
  O   O571      1.0  0.82495  0.64919  0.05164  1.0000
  O   O572      1.0  0.92238  0.68151  0.04104  1.0000
  O   O573      1.0  0.17133  0.93535  0.42689  1.0000
  O   O574      1.0  0.06459  0.93092  0.43792  1.0000
  O   O575      1.0  0.95956  0.88247  0.44043  1.0000
  H   H351      1.0  0.07578  0.77086  0.05965  1.0000
  H   H352      1.0  0.09328  0.86103  0.05250  1.0000
  O   O576      1.0  0.06053  0.83913  0.05488  1.0000
  H   H353      1.0  0.83714  0.76214  0.40943  1.0000
  H   H354      1.0  0.81011  0.67616  0.40392  1.0000
  O   O577      1.0  0.83071  0.70326  0.41904  1.0000
  H   H355      1.0  0.46607  0.11166  0.56802  1.0000
  H   H356      1.0  0.49109  0.16748  0.54582  1.0000
  O   O578      1.0  0.49164  0.15102  0.56573  1.0000
  H   H357      1.0  0.91273  0.98772  0.50521  1.0000
  H   H358      1.0  0.85269  0.01622  0.50209  1.0000
  O   O579      1.0  0.88437  0.99296  0.49157  1.0000
  H   H359      1.0  0.27795  0.64668  0.84354  1.0000
  H   H360      1.0  0.88126  0.44724  0.70216  1.0000
  O   O580      1.0  0.51256  0.66557  0.63318  1.0000
  H   H361      1.0  0.48166  0.74122  0.42940  1.0000
  H   H362      1.0  0.27385  0.98183  0.48959  1.0000
  O   O581      1.0  0.32706  0.74119  0.43499  1.0000
  H   H363      1.0  0.81923  0.27409  0.66633  1.0000
  H   H364      1.0  0.54839  0.65578  0.63786  1.0000
  O   O582      1.0  0.44210  0.75909  0.42397  1.0000
  H   H365      1.0  0.08941  0.80500  0.97248  1.0000
  H   H366      1.0  0.05359  0.92012  0.97472  1.0000
  O   O583      1.0  0.05553  0.84885  0.97959  1.0000
  H   H367      1.0  0.62366  0.90290  0.41427  1.0000
  H   H368      1.0  0.63556  0.79670  0.43128  1.0000
  O   O584      1.0  0.64185  0.82915  0.41297  1.0000
  H   H369      1.0  0.69640  0.83948  0.40995  1.0000
  H   H370      1.0  0.73493  0.91021  0.40905  1.0000
  O   O585      1.0  0.73038  0.84542  0.40491  1.0000
  H   H371      1.0  0.41867  0.41969  0.44052  1.0000
  H   H372      1.0  0.47284  0.40210  0.45539  1.0000
  O   O586      1.0  0.44533  0.37518  0.45395  1.0000
  H   H373      1.0  0.29363  0.68250  0.70382  1.0000
  H   H374      1.0  0.78440  0.14190  0.51729  1.0000
  O   O587      1.0  0.85658  0.93313  0.02887  1.0000
  H   H375      1.0  0.54220  0.95665  0.77548  1.0000
  H   H376      1.0  0.29899  0.77598  0.82622  1.0000
  O   O588      1.0  0.55736  0.92152  0.75893  1.0000
  H   H377      1.0  0.26686  0.55206  0.77605  1.0000
  H   H378      1.0  0.38142  0.70738  0.06263  1.0000
  O   O589      1.0  0.66505  0.83301  0.04484  1.0000
  H   H379      1.0  0.39184  0.61312  0.49187  1.0000
  H   H380      1.0  0.43383  0.57348  0.46793  1.0000
  O   O590      1.0  0.39605  0.59626  0.47222  1.0000
  H   H381      1.0  0.43843  0.12765  0.66638  1.0000
  H   H382      1.0  0.48943  0.56096  0.77120  1.0000
  O   O591      1.0  0.46293  0.78505  0.06029  1.0000
  H   H383      1.0  0.61138  0.00719  0.58930  1.0000
  H   H384      1.0  0.63723  0.89172  0.57591  1.0000
  O   O592      1.0  0.62132  0.93194  0.59135  1.0000
  H   H385      1.0  0.28888  0.80599  0.06806  1.0000
  H   H386      1.0  0.23516  0.87076  0.07467  1.0000
  O   O593      1.0  0.25366  0.80213  0.07103  1.0000
  H   H387      1.0  0.16879  0.73979  0.06872  1.0000
  H   H388      1.0  0.18235  0.63240  0.07869  1.0000
  O   O594      1.0  0.15069  0.69613  0.07743  1.0000
  H   H389      1.0  0.01255  0.91281  0.01038  1.0000
  H   H390      1.0  0.95251  0.96006  0.01254  1.0000
  O   O595      1.0  0.97651  0.42202  0.02640  1.0000
  H   H391      1.0  0.87900  0.90814  0.47158  1.0000
  H   H392      1.0  0.85077  0.82998  0.46177  1.0000
  O   O596      1.0  0.87930  0.85108  0.45881  1.0000
  H   H393      1.0  0.04746  0.65442  0.02138  1.0000
  H   H394      1.0  0.00288  0.76400  0.02005  1.0000
  O   O597      1.0  0.00951  0.69459  0.02518  1.0000
  H   H395      1.0  0.05477  0.76463  0.52921  1.0000
  H   H396      1.0  0.07748  0.79874  0.50186  1.0000
  O   O598      1.0  0.04606  0.81253  0.51274  1.0000
  H   H397      1.0  0.22184  0.31763  0.49557  1.0000
  H   H398      1.0  0.19580  0.38718  0.51986  1.0000
  O   O599      1.0  0.21549  0.32114  0.51601  1.0000
  H   H399      1.0  0.00379  0.12108  0.66018  1.0000
  H   H400      1.0  0.02058  0.16551  0.63147  1.0000
  O   O600      1.0  0.99187  0.15248  0.64156  1.0000
  H   H401      1.0  0.45097  0.63784  0.86104  1.0000
  H   H402      1.0  0.42626  0.55310  0.85822  1.0000
  O   O601      1.0  0.45733  0.57121  0.85267  1.0000
  H   H403      1.0  0.08552  0.96310  0.68314  1.0000
  H   H404      1.0  0.13991  0.96121  0.66763  1.0000
  O   O602      1.0  0.11951  0.91828  0.67648  1.0000
  H   H405      1.0  0.29454  0.66247  0.03179  1.0000
  H   H406      1.0  0.28413  0.58170  0.05133  1.0000
  O   O603      1.0  0.27728  0.60978  0.03235  1.0000
  H   H407      1.0  0.97002  0.26300  0.86786  1.0000
  H   H408      1.0  0.95930  0.35601  0.84670  1.0000
  O   O604      1.0  0.94692  0.29736  0.85278  1.0000
  H   H409      1.0  0.31094  0.48614  0.45823  1.0000
  H   H410      1.0  0.55472  0.03596  0.83358  1.0000
  O   O605      1.0  0.55574  0.05473  0.85337  1.0000
  H   H411      1.0  0.04711  0.87171  0.76291  1.0000
  H   H412      1.0  0.99626  0.88229  0.74352  1.0000
  O   O606      1.0  0.00784  0.87940  0.76479  1.0000
  H   H413      1.0  0.84712  0.37686  0.56599  1.0000
  H   H414      1.0  0.14086  0.20051  0.94998  1.0000
  O   O607      1.0  0.87360  0.40592  0.55663  1.0000
  H   H415      1.0  0.38411  0.80964  0.05893  1.0000
  H   H416      1.0  0.47585  0.53617  0.74475  1.0000
  O   O608      1.0  0.36243  0.77582  0.06904  1.0000
  H   H417      1.0  0.60108  0.21864  0.60622  1.0000
  H   H418      1.0  0.56666  0.30965  0.62022  1.0000
  O   O609      1.0  0.60386  0.26853  0.62092  1.0000
  H   H419      1.0  0.83694  0.67183  0.88585  1.0000
  H   H420      1.0  0.59816  0.83075  0.04405  1.0000
  O   O610      1.0  0.50896  0.53761  0.75366  1.0000
  H   H421      1.0  0.61297  0.59354  0.58952  1.0000
  H   H422      1.0  0.62707  0.48865  0.60287  1.0000
  O   O611      1.0  0.61777  0.52147  0.58437  1.0000
  H   H423      1.0  0.59876  0.91320  0.49816  1.0000
  H   H424      1.0  0.65771  0.87298  0.48958  1.0000
  O   O612      1.0  0.62667  0.84511  0.49513  1.0000
  H   H425      1.0  0.58748  0.76003  0.63771  1.0000
  H   H426      1.0  0.21452  0.70384  0.45770  1.0000
  O   O613      1.0  0.61429  0.69638  0.64049  1.0000
  H   H427      1.0  0.31096  0.48596  0.02013  1.0000
  H   H428      1.0  0.31764  0.22216  0.80240  1.0000
  O   O614      1.0  0.32677  0.41445  0.01987  1.0000
  H   H429      1.0  0.64621  0.77169  0.85337  1.0000
  H   H430      1.0  0.68623  0.75766  0.82831  1.0000
  O   O615      1.0  0.67477  0.72283  0.84337  1.0000
  H   H431      1.0  0.89666  0.12622  0.70913  1.0000
  H   H432      1.0  0.90678  0.16152  0.74012  1.0000
  O   O616      1.0  0.89241  0.18313  0.72173  1.0000
  H   H433      1.0  0.47601  0.42079  0.69324  1.0000
  H   H434      1.0  0.49765  0.33271  0.67492  1.0000
  O   O617      1.0  0.49224  0.34906  0.69434  1.0000
  H   H435      1.0  0.12427  0.11092  0.72095  1.0000
  H   H436      1.0  0.16717  0.16024  0.73091  1.0000
  O   O618      1.0  0.16029  0.11267  0.71550  1.0000
  H   H437      1.0  0.66332  0.34316  0.02632  1.0000
  H   H438      1.0  0.90566  0.78661  0.81869  1.0000
  O   O619      1.0  0.92298  0.71611  0.81436  1.0000
  H   H439      1.0  0.00794  0.77003  0.77950  1.0000
  H   H440      1.0  0.97591  0.70303  0.79203  1.0000
  O   O620      1.0  0.01062  0.69853  0.78242  1.0000
  H   H441      1.0  0.97695  0.62997  0.62946  1.0000
  H   H442      1.0  0.03700  0.57458  0.62077  1.0000
  O   O621      1.0  0.01506  0.61367  0.63524  1.0000
  H   H443      1.0  0.34841  0.56927  0.86770  1.0000
  H   H444      1.0  0.63546  0.13477  0.83148  1.0000
  O   O622      1.0  0.62790  0.13443  0.85152  1.0000
  H   H445      1.0  0.35557  0.39934  0.53843  1.0000
  H   H446      1.0  0.34781  0.43231  0.50373  1.0000
  O   O623      1.0  0.37392  0.40365  0.52013  1.0000
  H   H447      1.0  0.52713  0.78785  0.98990  1.0000
  H   H448      1.0  0.41044  0.53934  0.05979  1.0000
  O   O624      1.0  0.55027  0.75187  0.97395  1.0000
  H   H449      1.0  0.20116  0.37012  0.98034  1.0000
  H   H450      1.0  0.15788  0.32306  0.96674  1.0000
  O   O625      1.0  0.44724  0.82176  0.77748  1.0000
  H   H451      1.0  0.62155  0.19254  0.52667  1.0000
  H   H452      1.0  0.67543  0.11484  0.53668  1.0000
  O   O626      1.0  0.64610  0.17667  0.54193  1.0000
  H   H453      1.0  0.33713  0.40425  0.74660  1.0000
  H   H454      1.0  0.33588  0.32841  0.76518  1.0000
  O   O627      1.0  0.36178  0.35221  0.75559  1.0000
  H   H455      1.0  0.45373  0.39695  0.53218  1.0000
  H   H456      1.0  0.28214  0.47638  0.79797  1.0000
  O   O628      1.0  0.25210  0.52570  0.79123  1.0000
  H   H457      1.0  0.94310  0.58310  0.47613  1.0000
  H   H458      1.0  0.88368  0.60908  0.47154  1.0000
  O   O629      1.0  0.91558  0.62081  0.46460  1.0000
  H   H459      1.0  0.38790  0.85805  0.56278  1.0000
  H   H460      1.0  0.29336  0.73831  0.44237  1.0000
  O   O630      1.0  0.35676  0.89334  0.55030  1.0000
  H   H461      1.0  0.10781  0.85391  0.78864  1.0000
  H   H462      1.0  0.15485  0.82028  0.76572  1.0000
  O   O631      1.0  0.11807  0.81994  0.76982  1.0000
  H   H463      1.0  0.37311  0.42888  0.95801  1.0000
  H   H464      1.0  0.40846  0.47787  0.96922  1.0000
  O   O632      1.0  0.39525  0.42264  0.97399  1.0000
  H   H465      1.0  0.49542  0.23119  0.88735  1.0000
  H   H466      1.0  0.50038  0.14831  0.86610  1.0000
  O   O633      1.0  0.47504  0.21093  0.87335  1.0000
  H   H467      1.0  0.98972  0.64466  0.75117  1.0000
  H   H468      1.0  0.94646  0.62229  0.73383  1.0000
  O   O634      1.0  0.98403  0.60955  0.73377  1.0000
  H   H469      1.0  0.04451  0.20945  0.72953  1.0000
  H   H470      1.0  0.06286  0.12406  0.75090  1.0000
  O   O635      1.0  0.06247  0.13447  0.73105  1.0000
  H   H471      1.0  0.50491  0.39330  0.82677  1.0000
  H   H472      1.0  0.32647  0.00466  0.95030  1.0000
  O   O636      1.0  0.32744  0.93191  0.95254  1.0000
  H   H473      1.0  0.12619  0.50220  0.96182  1.0000
  H   H474      1.0  0.10713  0.58224  0.98309  1.0000
  O   O637      1.0  0.11236  0.57430  0.96326  1.0000
  H   H475      1.0  0.32329  0.60265  0.82075  1.0000
  H   H476      1.0  0.57316  0.71629  0.44778  1.0000
  O   O638      1.0  0.31659  0.64573  0.83697  1.0000
  H   H477      1.0  0.81969  0.92121  0.02793  1.0000
  H   H478      1.0  0.14952  0.52851  0.64498  1.0000
  O   O639      1.0  0.12463  0.55728  0.65970  1.0000
  H   H479      1.0  0.80735  0.60707  0.84901  1.0000
  H   H480      1.0  0.81608  0.48811  0.84599  1.0000
  O   O640      1.0  0.79316  0.55495  0.84306  1.0000
  H   H481      1.0  0.77349  0.84201  0.82023  1.0000
  H   H482      1.0  0.81577  0.88148  0.83557  1.0000
  O   O641      1.0  0.78711  0.85601  0.83792  1.0000
  H   H483      1.0  0.55987  0.64877  0.42313  1.0000
  H   H484      1.0  0.63650  0.69467  0.65589  1.0000
  O   O642      1.0  0.54569  0.69854  0.43670  1.0000
  H   H485      1.0  0.21615  0.44916  0.78088  1.0000
  H   H486      1.0  0.17033  0.42848  0.76352  1.0000
  O   O643      1.0  0.19525  0.40178  0.77879  1.0000
  H   H487      1.0  0.32957  0.22142  0.61943  1.0000
  H   H488      1.0  0.73793  0.97512  0.03509  1.0000
  O   O644      1.0  0.56672  0.82628  0.05262  1.0000
  H   H489      1.0  0.74345  0.20629  0.79408  1.0000
  H   H490      1.0  0.76832  0.26068  0.77112  1.0000
  O   O645      1.0  0.76063  0.19631  0.77577  1.0000
  H   H491      1.0  0.73507  0.57434  0.00678  1.0000
  H   H492      1.0  0.72634  0.26343  0.50352  1.0000
  O   O646      1.0  0.75640  0.26679  0.51613  1.0000
  H   H493      1.0  0.21572  0.45229  0.68236  1.0000
  H   H494      1.0  0.20618  0.39963  0.70890  1.0000
  O   O647      1.0  0.23393  0.40648  0.69715  1.0000
  H   H495      1.0  0.92114  0.33872  0.67689  1.0000
  H   H496      1.0  0.90827  0.28657  0.70584  1.0000
  O   O648      1.0  0.92457  0.33637  0.69827  1.0000
  H   H497      1.0  0.46840  0.57618  0.95638  1.0000
  H   H498      1.0  0.46832  0.48183  0.93871  1.0000
  O   O649      1.0  0.45222  0.51853  0.95532  1.0000
  H   H499      1.0  0.45009  0.05554  0.70375  1.0000
  H   H500      1.0  0.43595  0.16346  0.71319  1.0000
  O   O650      1.0  0.42396  0.12037  0.69917  1.0000
  H   H501      1.0  0.02740  0.23438  0.55284  1.0000
  H   H502      1.0  0.04456  0.19743  0.58308  1.0000
  O   O651      1.0  0.02684  0.18206  0.56536  1.0000
  H   H503      1.0  0.57601  0.96910  0.68888  1.0000
  H   H504      1.0  0.42796  0.82699  0.42856  1.0000
  O   O652      1.0  0.23109  0.73331  0.44214  1.0000
  H   H505      1.0  0.56039  0.52059  0.58453  1.0000
  H   H506      1.0  0.58749  0.24762  0.04802  1.0000
  O   O653      1.0  0.56006  0.30785  0.05046  1.0000
  H   H507      1.0  0.86185  0.19236  0.89745  1.0000
  H   H508      1.0  0.91079  0.17784  0.91949  1.0000
  O   O654      1.0  0.87351  0.19121  0.91713  1.0000
  H   H509      1.0  0.95820  0.21611  0.82083  1.0000
  H   H510      1.0  0.95692  0.27667  0.79258  1.0000
  O   O655      1.0  0.96632  0.21288  0.80172  1.0000
  H   H511      1.0  0.57795  0.69106  0.55884  1.0000
  H   H512      1.0  0.61984  0.73501  0.57072  1.0000
  O   O656      1.0  0.58969  0.71139  0.57728  1.0000
  H   H513      1.0  0.40269  0.01332  0.60096  1.0000
  H   H514      1.0  0.36803  0.99552  0.62751  1.0000
  O   O657      1.0  0.37827  0.04722  0.61672  1.0000
  H   H515      1.0  0.21280  0.37557  0.44760  1.0000
  H   H516      1.0  0.63520  0.40385  0.69435  1.0000
  O   O658      1.0  0.24076  0.32345  0.46067  1.0000
  H   H517      1.0  0.96693  0.15899  0.58220  1.0000
  H   H518      1.0  0.96076  0.13698  0.61188  1.0000
  O   O659      1.0  0.94394  0.12862  0.59363  1.0000
  H   H519      1.0  0.91360  0.95268  0.88732  1.0000
  H   H520      1.0  0.88884  0.05179  0.86731  1.0000
  O   O660      1.0  0.91242  0.98343  0.86735  1.0000
  H   H521      1.0  0.92182  0.78769  0.98084  1.0000
  H   H522      1.0  0.88027  0.72591  0.98227  1.0000
  O   O661      1.0  0.89427  0.77186  0.99285  1.0000
  H   H523      1.0  0.09540  0.34766  0.64492  1.0000
  H   H524      1.0  0.14991  0.26120  0.64614  1.0000
  O   O662      1.0  0.12676  0.31009  0.63355  1.0000
  H   H525      1.0  0.26866  0.36293  0.01664  1.0000
  H   H526      1.0  0.25322  0.26892  0.01270  1.0000
  O   O663      1.0  0.23571  0.34285  0.01153  1.0000
  H   H527      1.0  0.53112  0.25476  0.51645  1.0000
  H   H528      1.0  0.55089  0.18584  0.48992  1.0000
  O   O664      1.0  0.55771  0.19181  0.51089  1.0000
  H   H529      1.0  0.71191  0.96469  0.88529  1.0000
  H   H530      1.0  0.84352  0.26754  0.93957  1.0000
  O   O665      1.0  0.71560  0.00014  0.86893  1.0000
  H   H531      1.0  0.65264  0.52911  0.87945  1.0000
  H   H532      1.0  0.66589  0.50938  0.91143  1.0000
  O   O666      1.0  0.67880  0.52159  0.89291  1.0000
  H   H533      1.0  0.59207  0.16844  0.97779  1.0000
  H   H534      1.0  0.57082  0.28323  0.98104  1.0000
  O   O667      1.0  0.57968  0.22333  0.99187  1.0000
  H   H535      1.0  0.87697  0.70549  0.53437  1.0000
  H   H536      1.0  0.92738  0.71751  0.52059  1.0000
  O   O668      1.0  0.91402  0.68950  0.53748  1.0000
  H   H537      1.0  0.96519  0.00832  0.58539  1.0000
  H   H538      1.0  0.95255  0.91164  0.57620  1.0000
  O   O669      1.0  0.97274  0.95761  0.57068  1.0000
  H   H539      1.0  0.19723  0.58141  0.54189  1.0000
  H   H540      1.0  0.18512  0.64416  0.51393  1.0000
  O   O670      1.0  0.17833  0.64885  0.53396  1.0000
  H   H541      1.0  0.07413  0.06426  0.55048  1.0000
  H   H542      1.0  0.09820  0.95263  0.56162  1.0000
  O   O671      1.0  0.10388  0.00443  0.54904  1.0000
  H   H543      1.0  0.11409  0.44349  0.73122  1.0000
  H   H544      1.0  0.15110  0.50937  0.72897  1.0000
  O   O672      1.0  0.14894  0.44692  0.73461  1.0000
  H   H545      1.0  0.28994  0.99063  0.05972  1.0000
  H   H546      1.0  0.31568  0.92927  0.02944  1.0000
  O   O673      1.0  0.28445  0.97336  0.03976  1.0000
  H   H547      1.0  0.12684  0.55161  0.03429  1.0000
  H   H548      1.0  0.12300  0.37422  0.84333  1.0000
  O   O674      1.0  0.09704  0.33086  0.84532  1.0000
  H   H549      1.0  0.77433  0.23828  0.70574  1.0000
  H   H550      1.0  0.82160  0.26842  0.71321  1.0000
  O   O675      1.0  0.78876  0.29042  0.70105  1.0000
  H   H551      1.0  0.33948  0.60677  0.67063  1.0000
  H   H552      1.0  0.29096  0.67271  0.65573  1.0000
  O   O676      1.0  0.31825  0.67381  0.66814  1.0000
  H   H553      1.0  0.64427  0.67652  0.45721  1.0000
  H   H554      1.0  0.61425  0.78433  0.47334  1.0000
  O   O677      1.0  0.61744  0.74339  0.45539  1.0000
  H   H555      1.0  0.35420  0.46994  0.67084  1.0000
  H   H556      1.0  0.33371  0.48848  0.70291  1.0000
  O   O678      1.0  0.36155  0.49354  0.68957  1.0000
  H   H557      1.0  0.68573  0.36853  0.89608  1.0000
  H   H558      1.0  0.72464  0.26095  0.89013  1.0000
  O   O679      1.0  0.70718  0.31043  0.90588  1.0000
  H   H559      1.0  0.89695  0.41209  0.57180  1.0000
  H   H560      1.0  0.59242  0.05919  0.67886  1.0000
  O   O680      1.0  0.60667  0.99155  0.68547  1.0000
  H   H561      1.0  0.74116  0.42132  0.78391  1.0000
  H   H562      1.0  0.75672  0.42358  0.75205  1.0000
  O   O681      1.0  0.76857  0.38990  0.77032  1.0000
  H   H563      1.0  0.20755  0.02624  0.73013  1.0000
  H   H564      1.0  0.25872  0.02853  0.74529  1.0000
  O   O682      1.0  0.24230  0.98057  0.73879  1.0000
  H   H565      1.0  0.27221  0.80284  0.60350  1.0000
  H   H566      1.0  0.19891  0.61353  0.91520  1.0000
  O   O683      1.0  0.31097  0.77178  0.60573  1.0000
  H   H567      1.0  0.43985  0.32133  0.96332  1.0000
  H   H568      1.0  0.81908  0.76124  0.86408  1.0000
  O   O684      1.0  0.84548  0.69906  0.86779  1.0000
  H   H569      1.0  0.12517  0.24800  0.81314  1.0000
  H   H570      1.0  0.17146  0.14291  0.80799  1.0000
  O   O685      1.0  0.14231  0.19511  0.79986  1.0000
  H   H571      1.0  0.24846  0.96358  0.81489  1.0000
  H   H572      1.0  0.24710  0.04181  0.83297  1.0000
  O   O686      1.0  0.22697  0.02879  0.81643  1.0000
  H   H573      1.0  0.95378  0.12860  0.77658  1.0000
  H   H574      1.0  0.96943  0.01697  0.76977  1.0000
  O   O687      1.0  0.94559  0.08144  0.76401  1.0000
  H   H575      1.0  0.59349  0.70122  0.73684  1.0000
  H   H576      1.0  0.21033  0.68291  0.01720  1.0000
  O   O688      1.0  0.17471  0.72313  0.00966  1.0000
  H   H577      1.0  0.51562  0.04379  0.04110  1.0000
  H   H578      1.0  0.27935  0.17062  0.07459  1.0000
  O   O689      1.0  0.52859  0.01680  0.02108  1.0000
  H   H579      1.0  0.43662  0.14310  0.01853  1.0000
  H   H580      1.0  0.18256  0.52254  0.90190  1.0000
  O   O690      1.0  0.19347  0.58033  0.89706  1.0000
  H   H581      1.0  0.65248  0.63352  0.83770  1.0000
  H   H582      1.0  0.60187  0.61040  0.83307  1.0000
  O   O691      1.0  0.63873  0.57778  0.83681  1.0000
  H   H583      1.0  0.95525  0.28276  0.50574  1.0000
  H   H584      1.0  0.91067  0.34568  0.52452  1.0000
  O   O692      1.0  0.92617  0.34752  0.50575  1.0000
  H   H585      1.0  0.55459  0.92147  0.62191  1.0000
  H   H586      1.0  0.51061  0.87944  0.63237  1.0000
  O   O693      1.0  0.54873  0.86607  0.63272  1.0000
  H   H587      1.0  0.39295  0.00318  0.75095  1.0000
  H   H588      1.0  0.41461  0.03389  0.77719  1.0000
  O   O694      1.0  0.42560  0.99928  0.75968  1.0000
  H   H589      1.0  0.63484  0.96615  0.71835  1.0000
  H   H590      1.0  0.61226  0.95117  0.74852  1.0000
  O   O695      1.0  0.64494  0.94599  0.73802  1.0000
  H   H591      1.0  0.68409  0.16100  0.02680  1.0000
  H   H592      1.0  0.64098  0.21378  0.00754  1.0000
  O   O696      1.0  0.67196  0.22345  0.01694  1.0000
  H   H593      1.0  0.19424  0.90451  0.61443  1.0000
  H   H594      1.0  0.20142  0.82927  0.58607  1.0000
  O   O697      1.0  0.21009  0.83711  0.60568  1.0000
  H   H595      1.0  0.56278  0.85108  0.76177  1.0000
  H   H596      1.0  0.27776  0.80776  0.79598  1.0000
  O   O698      1.0  0.29273  0.83248  0.81203  1.0000
  H   H597      1.0  0.74435  0.98283  0.76593  1.0000
  H   H598      1.0  0.68410  0.99004  0.75978  1.0000
  O   O699      1.0  0.71174  0.98967  0.77425  1.0000
  H   H599      1.0  0.58420  0.08706  0.85316  1.0000
  H   H600      1.0  0.52245  0.85209  0.53067  1.0000
  O   O700      1.0  0.51343  0.87251  0.54929  1.0000
  H   H601      1.0  0.30083  0.88061  0.90455  1.0000
  H   H602      1.0  0.53640  0.82617  0.56285  1.0000
  O   O701      1.0  0.18421  0.66496  0.94533  1.0000
  H   H603      1.0  0.44333  0.73954  0.57103  1.0000
  H   H604      1.0  0.32884  0.30189  0.56392  1.0000
  O   O702      1.0  0.33699  0.36232  0.56419  1.0000
  H   H605      1.0  0.32908  0.13456  0.01857  1.0000
  H   H606      1.0  0.28443  0.09601  0.01970  1.0000
  O   O703      1.0  0.29494  0.14797  0.00986  1.0000
  H   H607      1.0  0.91438  0.64298  0.86440  1.0000
  H   H608      1.0  0.97181  0.60558  0.87238  1.0000
  O   O704      1.0  0.94732  0.60382  0.85696  1.0000
  H   H609      1.0  0.15802  0.81207  0.68677  1.0000
  H   H610      1.0  0.15416  0.71068  0.70184  1.0000
  O   O705      1.0  0.17741  0.74378  0.69097  1.0000
  H   H611      1.0  0.26103  0.47183  0.71763  1.0000
  H   H612      1.0  0.27930  0.56822  0.72497  1.0000
  O   O706      1.0  0.28576  0.49673  0.72782  1.0000
  H   H613      1.0  0.98021  0.56454  0.96178  1.0000
  H   H614      1.0  0.98875  0.45252  0.96095  1.0000
  O   O707      1.0  0.97207  0.51494  0.97316  1.0000
  H   H615      1.0  0.63039  0.04035  0.03268  1.0000
  H   H616      1.0  0.59861  0.98365  0.01454  1.0000
  O   O708      1.0  0.63245  0.99407  0.01755  1.0000
  H   H617      1.0  0.52709  0.93999  0.46958  1.0000
  H   H618      1.0  0.52775  0.95294  0.44062  1.0000
  O   O709      1.0  0.54749  0.96624  0.45637  1.0000
  H   H619      1.0  0.08327  0.64825  0.77749  1.0000
  H   H620      1.0  0.11782  0.71040  0.77447  1.0000
  O   O710      1.0  0.11985  0.63699  0.77384  1.0000
  H   H621      1.0  0.18982  0.95337  0.49316  1.0000
  H   H622      1.0  0.13687  0.98044  0.50969  1.0000
  O   O711      1.0  0.16452  0.92471  0.50244  1.0000
  H   H623      1.0  0.76305  0.79817  0.71051  1.0000
  H   H624      1.0  0.82302  0.75525  0.71118  1.0000
  O   O712      1.0  0.79504  0.80415  0.70206  1.0000
  H   H625      1.0  0.61572  0.19773  0.88351  1.0000
  H   H626      1.0  0.65281  0.20033  0.90876  1.0000
  O   O713      1.0  0.61647  0.22520  0.90278  1.0000
  H   H627      1.0  0.37766  0.24074  0.06266  1.0000
  H   H628      1.0  0.34444  0.35096  0.05140  1.0000
  O   O714      1.0  0.34500  0.29460  0.06469  1.0000
  H   H629      1.0  0.00496  0.67861  0.46980  1.0000
  H   H630      1.0  0.12767  0.71118  0.46171  1.0000
  O   O715      1.0  0.02752  0.63058  0.45566  1.0000
  H   H631      1.0  0.57317  0.75278  0.05235  1.0000
  H   H632      1.0  0.57119  0.54995  0.89973  1.0000
  O   O716      1.0  0.56258  0.62010  0.90505  1.0000
  H   H633      1.0  0.88485  0.93162  0.84181  1.0000
  H   H634      1.0  0.85946  0.96737  0.81264  1.0000
  O   O717      1.0  0.86815  0.91005  0.82496  1.0000
  H   H635      1.0  0.67491  0.09153  0.79180  1.0000
  H   H636      1.0  0.63581  0.19565  0.78142  1.0000
  O   O718      1.0  0.65457  0.15924  0.79889  1.0000
  H   H637      1.0  0.75411  0.15660  0.60764  1.0000
  H   H638      1.0  0.77397  0.04354  0.61662  1.0000
  O   O719      1.0  0.78629  0.10195  0.60973  1.0000
  H   H639      1.0  0.00168  0.93048  0.50653  1.0000
  H   H640      1.0  0.97304  0.98751  0.53351  1.0000
  O   O720      1.0  0.97597  0.99222  0.51331  1.0000
  H   H641      1.0  0.03058  0.16091  0.79869  1.0000
  H   H642      1.0  0.45201  0.28811  0.84053  1.0000
  O   O721      1.0  0.45050  0.32119  0.82203  1.0000
  H   H643      1.0  0.02548  0.47622  0.65997  1.0000
  H   H644      1.0  0.43747  0.61911  0.53449  1.0000
  O   O722      1.0  0.46429  0.65196  0.53927  1.0000
  H   H645      1.0  0.65956  0.55952  0.48991  1.0000
  H   H646      1.0  0.68031  0.52121  0.46111  1.0000
  O   O723      1.0  0.68419  0.56610  0.47456  1.0000
  H   H647      1.0  0.64658  0.38971  0.63238  1.0000
  H   H648      1.0  0.69039  0.44459  0.63028  1.0000
  O   O724      1.0  0.65085  0.45429  0.63324  1.0000
  H   H649      1.0  0.27460  0.13749  0.92088  1.0000
  H   H650      1.0  0.21422  0.14721  0.91543  1.0000
  O   O725      1.0  0.24716  0.15063  0.90673  1.0000
  H   H651      1.0  0.99210  0.12195  0.94312  1.0000
  H   H652      1.0  0.99398  0.17638  0.91458  1.0000
  O   O726      1.0  0.97539  0.18523  0.93332  1.0000
  H   H653      1.0  0.74963  0.08794  0.70558  1.0000
  H   H654      1.0  0.74203  0.13164  0.73379  1.0000
  O   O727      1.0  0.73056  0.14701  0.71543  1.0000
  H   H655      1.0  0.20292  0.64016  0.83648  1.0000
  H   H656      1.0  0.21508  0.61929  0.86889  1.0000
  O   O728      1.0  0.21859  0.66561  0.85232  1.0000
  H   H657      1.0  0.69025  0.36182  0.57070  1.0000
  H   H658      1.0  0.69139  0.47375  0.55916  1.0000
  O   O729      1.0  0.70509  0.40205  0.55755  1.0000
  H   H659      1.0  0.18218  0.39228  0.92937  1.0000
  H   H660      1.0  0.18953  0.37639  0.89499  1.0000
  O   O730      1.0  0.16737  0.40784  0.91051  1.0000
  H   H661      1.0  0.64232  0.81783  0.53165  1.0000
  H   H662      1.0  0.68166  0.72084  0.54757  1.0000
  O   O731      1.0  0.65525  0.79196  0.55008  1.0000
  H   H663      1.0  0.81894  0.53420  0.90558  1.0000
  H   H664      1.0  0.78898  0.64479  0.91251  1.0000
  O   O732      1.0  0.82365  0.59478  0.91286  1.0000
  H   H665      1.0  0.70640  0.22304  0.94903  1.0000
  H   H666      1.0  0.72520  0.22926  0.97939  1.0000
  O   O733      1.0  0.71852  0.26454  0.96279  1.0000
  H   H667      1.0  0.51104  0.57592  0.60114  1.0000
  H   H668      1.0  0.47482  0.81391  0.04207  1.0000
  O   O734      1.0  0.52121  0.52529  0.58512  1.0000
  H   H669      1.0  0.57590  0.62869  0.51289  1.0000
  H   H670      1.0  0.51934  0.66943  0.52190  1.0000
  O   O735      1.0  0.54668  0.68444  0.51022  1.0000
  H   H671      1.0  0.35026  0.85509  0.82523  1.0000
  H   H672      1.0  0.40856  0.82905  0.81242  1.0000
  O   O736      1.0  0.38405  0.86819  0.82701  1.0000
  H   H673      1.0  0.30540  0.12301  0.73658  1.0000
  H   H674      1.0  0.30791  0.11808  0.76893  1.0000
  O   O737      1.0  0.30953  0.07704  0.75267  1.0000
  H   H675      1.0  0.13705  0.63100  0.80710  1.0000
  H   H676      1.0  0.78445  0.28115  0.95113  1.0000
  O   O738      1.0  0.81584  0.30183  0.95278  1.0000
  H   H677      1.0  0.88492  0.34614  0.85305  1.0000
  H   H678      1.0  0.83971  0.39159  0.87413  1.0000
  O   O739      1.0  0.84703  0.36858  0.85513  1.0000
  H   H679      1.0  0.00113  0.65702  0.70174  1.0000
  H   H680      1.0  0.00556  0.67920  0.67073  1.0000
  O   O740      1.0  0.01807  0.69397  0.68932  1.0000
  H   H681      1.0  0.31598  0.12849  0.84062  1.0000
  H   H682      1.0  0.35202  0.18948  0.84761  1.0000
  O   O741      1.0  0.33635  0.16781  0.83132  1.0000
  H   H683      1.0  0.96182  0.43641  0.50201  1.0000
  H   H684      1.0  0.98259  0.52079  0.51399  1.0000
  O   O742      1.0  0.98289  0.48406  0.49735  1.0000
  H   H685      1.0  0.49298  0.97133  0.94863  1.0000
  H   H686      1.0  0.44147  0.93691  0.94419  1.0000
  O   O743      1.0  0.45673  0.98136  0.95585  1.0000
  H   H687      1.0  0.79191  0.57579  0.80745  1.0000
  H   H688      1.0  0.81786  0.55063  0.77891  1.0000
  O   O744      1.0  0.78609  0.59822  0.78746  1.0000
  H   H689      1.0  0.82086  0.07925  0.53933  1.0000
  H   H690      1.0  0.11092  0.62557  0.65431  1.0000
  O   O745      1.0  0.80415  0.07344  0.52078  1.0000
  H   H691      1.0  0.15392  0.04578  0.44788  1.0000
  H   H692      1.0  0.23202  0.22472  0.45080  1.0000
  O   O746      1.0  0.64053  0.46038  0.94019  1.0000
  H   H693      1.0  0.75613  0.61787  0.67162  1.0000
  H   H694      1.0  0.78479  0.51139  0.65701  1.0000
  O   O747      1.0  0.78999  0.56570  0.66648  1.0000
  H   H695      1.0  0.87712  0.87863  0.01675  1.0000
  H   H696      1.0  0.75491  0.86593  0.02510  1.0000
  O   O748      1.0  0.76461  0.91122  0.03917  1.0000
  H   H697      1.0  0.94343  0.90311  0.93160  1.0000
  H   H698      1.0  0.60559  0.35731  0.89476  1.0000
  O   O749      1.0  0.59032  0.42371  0.88544  1.0000
  H   H699      1.0  0.36522  0.34442  0.57746  1.0000
  H   H700      1.0  0.08690  0.28017  0.95536  1.0000
  O   O750      1.0  0.12235  0.25125  0.96412  1.0000
  O   O751      1.0  0.31292  0.74671  0.55086  1.0000
  H   H701      1.0  0.32583  0.80592  0.55097  1.0000
  H   H702      1.0  0.27331  0.77225  0.54868  1.0000
  O   O752      1.0  0.48348  0.42869  0.90455  1.0000
  H   H703      1.0  0.51292  0.44775  0.89662  1.0000
  H   H704      1.0  0.45287  0.45295  0.89179  1.0000
  O   O753      1.0  0.44325  0.55603  0.70938  1.0000
  H   H705      1.0  0.45205  0.56592  0.69057  1.0000
  H   H706      1.0  0.41133  0.53718  0.70724  1.0000
  O   O754      1.0  0.10177  0.68983  0.87923  1.0000
  H   H707      1.0  0.11699  0.67967  0.85962  1.0000
  H   H708      1.0  0.12918  0.64520  0.89069  1.0000
  O   O755      1.0  0.02864  0.58752  0.88620  1.0000
  H   H709      1.0  0.04511  0.52089  0.88961  1.0000
  H   H710      1.0  0.05302  0.62373  0.88295  1.0000
  O   O756      1.0  0.78939  0.98769  0.68607  1.0000
  H   H711      1.0  0.78790  0.93581  0.69863  1.0000
  H   H712      1.0  0.78616  0.96114  0.66745  1.0000
  O   O757      1.0  0.07419  0.87198  0.58006  1.0000
  H   H713      1.0  0.03778  0.90734  0.57589  1.0000
  H   H714      1.0  0.07114  0.87068  0.60172  1.0000
  O   O758      1.0  0.19288  0.96683  0.01553  1.0000
  H   H715      1.0  0.22789  0.96300  0.02155  1.0000
  H   H716      1.0  0.20400  0.92621  0.99744  1.0000
  O   O759      1.0  0.97014  0.74822  0.48965  1.0000
  H   H717      1.0  0.94106  0.78626  0.47822  1.0000
  H   H718      1.0  0.99285  0.78878  0.49446  1.0000
  O   O760      1.0  0.87418  0.66547  0.72718  1.0000
  H   H719      1.0  0.85901  0.61506  0.72099  1.0000
  H   H720      1.0  0.86087  0.69077  0.74615  1.0000
  O   O761      1.0  0.59985  0.41795  0.78606  1.0000
  H   H721      1.0  0.57891  0.42289  0.80424  1.0000
  H   H722      1.0  0.58007  0.47120  0.77387  1.0000
  O   O762      1.0  0.16692  0.41750  0.83178  1.0000
  H   H723      1.0  0.17862  0.40988  0.81164  1.0000
  H   H724      1.0  0.19695  0.38271  0.84367  1.0000
  O   O763      1.0  0.48845  0.37426  0.54131  1.0000
  H   H725      1.0  0.48929  0.43527  0.54858  1.0000
  H   H726      1.0  0.69069  0.77269  0.03913  1.0000
  O   O764      1.0  0.27346  0.68607  0.72138  1.0000
  H   H727      1.0  0.91494  0.70530  0.02143  1.0000
  H   H728      1.0  0.23931  0.71621  0.71349  1.0000
  O   O765      1.0  0.97822  0.82610  0.95517  1.0000
  H   H729      1.0  0.01028  0.83392  0.96494  1.0000
  H   H730      1.0  0.99071  0.76754  0.94475  1.0000
  O   O766      1.0  0.68669  0.26042  0.47951  1.0000
  H   H731      1.0  0.66074  0.31548  0.47281  1.0000
  H   H732      1.0  0.68505  0.20771  0.46684  1.0000
  O   O767      1.0  0.81398  0.54619  0.52682  1.0000
  H   H733      1.0  0.79711  0.51191  0.51321  1.0000
  H   H734      1.0  0.84074  0.49744  0.53790  1.0000
  O   O768      1.0  0.36202  0.85464  0.00555  1.0000
  H   H735      1.0  0.34842  0.88148  0.98618  1.0000
  H   H736      1.0  0.36376  0.78508  0.00738  1.0000
  O   O769      1.0  0.12570  0.81243  0.47264  1.0000
  H   H737      1.0  0.09916  0.85872  0.46132  1.0000
  H   H738      1.0  0.13932  0.86327  0.48200  1.0000
  O   O770      1.0  0.12127  0.65768  0.44970  1.0000
  H   H739      1.0  0.02850  0.56196  0.45835  1.0000
  H   H740      1.0  0.48541  0.73247  0.63591  1.0000
  O   O771      1.0  0.69531  0.71048  0.67503  1.0000
  H   H741      1.0  0.69492  0.77388  0.66676  1.0000
  H   H742      1.0  0.69454  0.72353  0.69573  1.0000
  O   O772      1.0  0.66457  0.09589  0.45022  1.0000
  H   H743      1.0  0.62602  0.11759  0.45292  1.0000
  H   H744      1.0  0.67130  0.10075  0.43020  1.0000
  O   O773      1.0  0.92349  0.80427  0.57915  1.0000
  H   H745      1.0  0.91661  0.76440  0.59510  1.0000
  H   H746      1.0  0.92396  0.76510  0.56231  1.0000
  O   O774      1.0  0.27588  0.05088  0.57157  1.0000
  H   H747      1.0  0.29119  0.04699  0.58995  1.0000
  H   H748      1.0  0.24077  0.05303  0.57753  1.0000
  O   O775      1.0  0.43057  0.03354  0.56154  1.0000
  H   H749      1.0  0.46294  0.97352  0.55591  1.0000
  H   H750      1.0  0.40729  0.05178  0.54493  1.0000
  O   O776      1.0  0.80840  0.32251  0.57742  1.0000
  H   H751      1.0  0.77123  0.34802  0.56939  1.0000
  H   H752      1.0  0.82331  0.25239  0.57328  1.0000
  O   O777      1.0  0.56234  0.99733  0.51862  1.0000
  H   H753      1.0  0.56536  0.98150  0.53971  1.0000
  H   H754      1.0  0.56256  0.06573  0.51830  1.0000
  O   O778      1.0  0.72024  0.01069  0.52166  1.0000
  H   H755      1.0  0.75724  0.00385  0.52321  1.0000
  H   H756      1.0  0.71757  0.95693  0.53547  1.0000
  O   O779      1.0  0.66382  0.77867  0.98001  1.0000
  H   H757      1.0  0.66949  0.71998  0.99212  1.0000
  H   H758      1.0  0.65190  0.75513  0.96158  1.0000
  O   O780      1.0  0.52932  0.76776  0.85931  1.0000
  H   H759      1.0  0.55289  0.80337  0.86695  1.0000
  H   H760      1.0  0.53198  0.76792  0.83922  1.0000
  O   O781      1.0  0.16052  0.24973  0.55196  1.0000
  H   H761      1.0  0.12165  0.27497  0.54567  1.0000
  H   H762      1.0  0.18023  0.25892  0.53610  1.0000
  O   O782      1.0  0.70333  0.61691  0.75720  1.0000
  H   H763      1.0  0.70376  0.56671  0.74368  1.0000
  H   H764      1.0  0.73296  0.59370  0.76994  1.0000
  O   O783      1.0  0.98205  0.88845  0.71102  1.0000
  H   H765      1.0  0.94417  0.92195  0.70645  1.0000
  H   H766      1.0  0.99827  0.82960  0.70073  1.0000
  O   O784      1.0  0.29825  0.21080  0.54648  1.0000
  H   H767      1.0  0.27362  0.25766  0.53447  1.0000
  H   H768      1.0  0.27752  0.17002  0.55196  1.0000
  O   O785      1.0  0.42658  0.02134  0.82356  1.0000
  H   H769      1.0  0.42094  0.95945  0.82760  1.0000
  H   H770      1.0  0.39215  0.07069  0.82267  1.0000
  O   O786      1.0  0.99922  0.31246  0.73252  1.0000
  H   H771      1.0  0.97500  0.32078  0.71516  1.0000
  H   H772      1.0  0.01491  0.36706  0.72996  1.0000
  O   O787      1.0  0.36918  0.52317  0.88180  1.0000
  H   H773      1.0  0.65603  0.07725  0.86006  1.0000
  H   H774      1.0  0.37233  0.56047  0.89841  1.0000
  O   O788      1.0  0.71218  0.77094  0.72898  1.0000
  H   H775      1.0  0.68285  0.82785  0.73433  1.0000
  H   H776      1.0  0.32742  0.94319  0.55824  1.0000
  O   O789      1.0  0.01993  0.05755  0.68891  1.0000
  H   H777      1.0  0.99648  0.01930  0.69593  1.0000
  H   H778      1.0  0.03599  0.08165  0.70604  1.0000
  O   O790      1.0  0.14289  0.98529  0.84718  1.0000
  H   H779      1.0  0.16895  0.99784  0.83548  1.0000
  H   H780      1.0  0.12345  0.95754  0.83336  1.0000
  O   O791      1.0  0.44417  0.25788  0.73227  1.0000
  H   H781      1.0  0.45466  0.29585  0.71823  1.0000
  H   H782      1.0  0.40958  0.29121  0.74134  1.0000
  O   O792      1.0  0.82988  0.26734  0.00500  1.0000
  H   H783      1.0  0.82029  0.20191  0.00381  1.0000
  H   H784      1.0  0.82826  0.28563  0.98352  1.0000
  O   O793      1.0  0.93700  0.46115  0.60216  1.0000
  H   H785      1.0  0.94559  0.41298  0.61746  1.0000
  H   H786      1.0  0.96760  0.45029  0.59177  1.0000
  O   O794      1.0  0.32626  0.09907  0.69416  1.0000
  H   H787      1.0  0.30119  0.14938  0.68544  1.0000
  H   H788      1.0  0.35867  0.11387  0.69889  1.0000
  O   O795      1.0  0.50484  0.53763  0.45844  1.0000
  H   H789      1.0  0.51592  0.59775  0.46068  1.0000
  H   H790      1.0  0.49702  0.52652  0.43849  1.0000
