data_image0
_chemical_formula_structural       OTi2O4Ti2O4Ti2O4Ti2O4Ti2O4Ti2O4Ti2O4Ti2O4Ti2O4Ti2O4Ti2O4Ti2O4Ti2O4Ti2O4Ti2O4Ti2O4Ti2O4Ti2O4Ti2O4Ti2O4Ti2O4Ti2O4Ti2O4Ti2O4H2OH2OH2OH2OH2OH2OH2OH2OH2OH2OH2OH2OH2OH2OH2OH4OH2OH2OH2OH2OH2OH2OH2OH2OH2OH2OH2OH2OH2OH2OH2OH2OH2OH2OH2OH2OH2OH2OH2OH2OH2OH2OH2OH2OH2OH2OH2OH2OH2OH2OH2OH2OH2OH2OH2OH2OH2OH2OH2OH2OH2OH2OH2OH2OH2OH2OH2OH2OH2OH2OH2OH2OH2OH2OH2OH2OH2OH2OH2OH2OH2OH2OH2OH2OH2OH2OH2OH2OH2OH2OH2OH2OH2OH2OH2OH2OH2OH2OH2OH2OH2OH2OH2OH2OH2OH2OH2OH2OH2OH2OH2OH2OH2OH2OH2OH2OH2OH2OH2OH2OH2OH2OH2OH2OH2OH2OH2OH2OH2OH2OH2OH2OH2OH2OH2OH2OH2OH2OH2OH2OH2OH2OH2O2H2OH2OH2OH2OH2OH2OH2OH2OH2OH2OTi2O4Ti2O4Ti2O4Ti2O4Ti2O4Ti2O4Ti2O4Ti2O4Ti2O4Ti2O4Ti2O4Ti2O4Ti2O4Ti2O4Ti2O4Ti2O4Ti2O4Ti2O4Ti2O4Ti2O4Ti2O4Ti2O4Ti2O4Ti2O4H2OH2OH2OH2OH2OH2OH2OH2OH2OH2OH2OH2OH2OH2OH2OH4OH2OH2OH2OH2OH2OH2OH2OH2OH2OH2OH2OH2OH2OH2OH2OH2OH2OH2OH2OH2OH2OH2OH2OH2OH2OH2OH2OH2OH2OH2OH2OH2OH2OH2OH2OH2OH2OH2OH2OH2OH2OH2OH2OH2OH2OH2OH2OH2OH2OH2OH2OH2OH2OH2OH2OH2OH2OH2OH2OH2OH2OH2OH2OH2OH2OH2OH2OH2OH2OH2OH2OH2OH2OH2OH2OH2OH2OH2OH2OH2OH2OH2OH2OH2OH2OH2OH2OH2OH2OH2OH2OH2OH2OH2OH2OH2OH2OH2OH2OH2OH2OH2OH2OH2OH2OH2OH2OH2OH2OH2OH2OH2OH2OH2OH2OH2OH2OH2OH2OH2OH2OH2OH2OH2OH2OH2OH2O2H2OH2OH2OH2OH2OH2OH2OH2OH2OH2OTi2O4Ti2O4Ti2O4Ti2O4Ti2O4Ti2O4Ti2O4Ti2O4Ti2O4Ti2O4Ti2O4Ti2O4Ti2O4Ti2O4Ti2O4Ti2O4Ti2O4Ti2O4Ti2O4Ti2O4Ti2O4Ti2O4Ti2O4Ti2O4H2OH2OH2OH2OH2OH2OH2OH2OH2OH2OH2OH2OH2OH2OH2OH4OH2OH2OH2OH2OH2OH2OH2OH2OH2OH2OH2OH2OH2OH2OH2OH2OH2OH2OH2OH2OH2OH2OH2OH2OH2OH2OH2OH2OH2OH2OH2OH2OH2OH2OH2OH2OH2OH2OH2OH2OH2OH2OH2OH2OH2OH2OH2OH2OH2OH2OH2OH2OH2OH2OH2OH2OH2OH2OH2OH2OH2OH2OH2OH2OH2OH2OH2OH2OH2OH2OH2OH2OH2OH2OH2OH2OH2OH2OH2OH2OH2OH2OH2OH2OH2OH2OH2OH2OH2OH2OH2OH2OH2OH2OH2OH2OH2OH2OH2OH2OH2OH2OH2OH2OH2OH2OH2OH2OH2OH2OH2OH2OH2OH2OH2OH2OH2OH2OH2OH2OH2OH2OH2OH2OH2OH2OH2O2H2OH2OH2OH2OH2OH2OH2OH2OH2OH2OTi2O4Ti2O4Ti2O4Ti2O4Ti2O4Ti2O4Ti2O4Ti2O4Ti2O4Ti2O4Ti2O4Ti2O4Ti2O4Ti2O4Ti2O4Ti2O4Ti2O4Ti2O4Ti2O4Ti2O4Ti2O4Ti2O4Ti2O4Ti2O4H2OH2OH2OH2OH2OH2OH2OH2OH2OH2OH2OH2OH2OH2OH2OH4OH2OH2OH2OH2OH2OH2OH2OH2OH2OH2OH2OH2OH2OH2OH2OH2OH2OH2OH2OH2OH2OH2OH2OH2OH2OH2OH2OH2OH2OH2OH2OH2OH2OH2OH2OH2OH2OH2OH2OH2OH2OH2OH2OH2OH2OH2OH2OH2OH2OH2OH2OH2OH2OH2OH2OH2OH2OH2OH2OH2OH2OH2OH2OH2OH2OH2OH2OH2OH2OH2OH2OH2OH2OH2OH2OH2OH2OH2OH2OH2OH2OH2OH2OH2OH2OH2OH2OH2OH2OH2OH2OH2OH2OH2OH2OH2OH2OH2OH2OH2OH2OH2OH2OH2OH2OH2OH2OH2OH2OH2OH2OH2OH2OH2OH2OH2OH2OH2OH2OH2OH2OH2OH2OH2OH2OH2OH2O2H2OH2OH2OH2OH2OH2OH2OH2OH2OH2
_chemical_formula_sum              "O1000 Ti192 H1232"
_cell_length_a       25.9819
_cell_length_b       23.672
_cell_length_c       38.4361
_cell_angle_alpha    90
_cell_angle_beta     90
_cell_angle_gamma    90

_space_group_name_H-M_alt    "P 1"
_space_group_IT_number       1

loop_
  _space_group_symop_operation_xyz
  'x, y, z'

loop_
  _atom_site_type_symbol
  _atom_site_label
  _atom_site_symmetry_multiplicity
  _atom_site_fract_x
  _atom_site_fract_y
  _atom_site_fract_z
  _atom_site_occupancy
  O   O1        1.0  0.26100  0.04633  0.05047  1.0000
  Ti  Ti1       1.0  0.25704  0.10636  0.08905  1.0000
  Ti  Ti2       1.0  0.12900  0.04919  0.08414  1.0000
  O   O2        1.0  0.18346  0.10727  0.08736  1.0000
  O   O3        1.0  0.08575  0.10775  0.07838  1.0000
  O   O4        1.0  0.13362  0.04381  0.13336  1.0000
  O   O5        1.0  0.00960  0.04914  0.11540  1.0000
  Ti  Ti3       1.0  0.13175  0.11109  0.16723  1.0000
  Ti  Ti4       1.0  0.00485  0.04641  0.16359  1.0000
  O   O6        1.0  0.05605  0.10642  0.16808  1.0000
  O   O7        1.0  0.20633  0.10480  0.16825  1.0000
  O   O8        1.0  0.26272  0.04530  0.22323  1.0000
  O   O9        1.0  0.13201  0.04536  0.20160  1.0000
  Ti  Ti5       1.0  0.25147  0.11088  0.26028  1.0000
  Ti  Ti6       1.0  0.12375  0.04833  0.25750  1.0000
  O   O10       1.0  0.17799  0.11160  0.25315  1.0000
  O   O11       1.0  0.08190  0.11316  0.25127  1.0000
  O   O12       1.0  0.00489  0.04455  0.28647  1.0000
  O   O13       1.0  0.26230  0.17158  0.04901  1.0000
  Ti  Ti7       1.0  0.25463  0.23576  0.08947  1.0000
  Ti  Ti8       1.0  0.13621  0.17510  0.07857  1.0000
  O   O14       1.0  0.18463  0.23505  0.08556  1.0000
  O   O15       1.0  0.08461  0.22960  0.08252  1.0000
  O   O16       1.0  0.13431  0.17187  0.13680  1.0000
  O   O17       1.0  0.00696  0.17171  0.11857  1.0000
  Ti  Ti9       1.0  0.13316  0.23211  0.16504  1.0000
  Ti  Ti10      1.0  0.01294  0.17189  0.17042  1.0000
  O   O18       1.0  0.05720  0.23535  0.16673  1.0000
  O   O19       1.0  0.20878  0.23243  0.16709  1.0000
  O   O20       1.0  0.26171  0.17512  0.21992  1.0000
  O   O21       1.0  0.13166  0.16979  0.20037  1.0000
  Ti  Ti11      1.0  0.26098  0.23465  0.26292  1.0000
  Ti  Ti12      1.0  0.13300  0.17333  0.25375  1.0000
  O   O22       1.0  0.18316  0.23525  0.25174  1.0000
  O   O23       1.0  0.08563  0.23535  0.25435  1.0000
  O   O24       1.0  0.49960  0.17376  0.29151  1.0000
  O   O25       1.0  0.25543  0.29442  0.05256  1.0000
  Ti  Ti13      1.0  0.25963  0.35895  0.07788  1.0000
  Ti  Ti14      1.0  0.12978  0.29870  0.08538  1.0000
  O   O26       1.0  0.18145  0.35813  0.08095  1.0000
  O   O27       1.0  0.08628  0.35551  0.07676  1.0000
  O   O28       1.0  0.12786  0.29390  0.13477  1.0000
  O   O29       1.0  0.00789  0.30153  0.11900  1.0000
  Ti  Ti15      1.0  0.12921  0.36115  0.16944  1.0000
  Ti  Ti16      1.0  0.00390  0.29692  0.16731  1.0000
  O   O30       1.0  0.05607  0.36241  0.17058  1.0000
  O   O31       1.0  0.20577  0.36048  0.16982  1.0000
  O   O32       1.0  0.25954  0.29823  0.21945  1.0000
  O   O33       1.0  0.12927  0.29709  0.20112  1.0000
  Ti  Ti17      1.0  0.26299  0.35912  0.25178  1.0000
  Ti  Ti18      1.0  0.13833  0.29502  0.24947  1.0000
  O   O34       1.0  0.18149  0.35559  0.25644  1.0000
  O   O35       1.0  0.09063  0.35915  0.26159  1.0000
  O   O36       1.0  0.01358  0.29620  0.28961  1.0000
  O   O37       1.0  0.25752  0.41812  0.04871  1.0000
  Ti  Ti19      1.0  0.25994  0.48405  0.07686  1.0000
  Ti  Ti20      1.0  0.13883  0.42340  0.08520  1.0000
  O   O38       1.0  0.18344  0.48132  0.08120  1.0000
  O   O39       1.0  0.08621  0.48433  0.08213  1.0000
  O   O40       1.0  0.13405  0.41989  0.13463  1.0000
  O   O41       1.0  0.00862  0.41800  0.11519  1.0000
  Ti  Ti21      1.0  0.13481  0.48692  0.16991  1.0000
  Ti  Ti22      1.0  0.00972  0.42311  0.17348  1.0000
  O   O42       1.0  0.05983  0.48605  0.17129  1.0000
  O   O43       1.0  0.21168  0.48420  0.17149  1.0000
  O   O44       1.0  0.25251  0.42393  0.22325  1.0000
  O   O45       1.0  0.13394  0.42170  0.20379  1.0000
  Ti  Ti23      1.0  0.25371  0.48557  0.25713  1.0000
  Ti  Ti24      1.0  0.14040  0.42310  0.25491  1.0000
  O   O46       1.0  0.18277  0.48923  0.25304  1.0000
  O   O47       1.0  0.08425  0.48232  0.25238  1.0000
  O   O48       1.0  0.00724  0.41776  0.28954  1.0000
  O   O49       1.0  0.00949  0.04273  0.04469  1.0000
  Ti  Ti25      1.0  0.00653  0.09925  0.07642  1.0000
  Ti  Ti26      1.0  0.38474  0.04645  0.08480  1.0000
  O   O50       1.0  0.43111  0.10569  0.08301  1.0000
  O   O51       1.0  0.33401  0.10822  0.08407  1.0000
  O   O52       1.0  0.38235  0.04753  0.13681  1.0000
  O   O53       1.0  0.25880  0.04416  0.12050  1.0000
  Ti  Ti27      1.0  0.38702  0.10952  0.17088  1.0000
  Ti  Ti28      1.0  0.25558  0.04687  0.17079  1.0000
  O   O54       1.0  0.30883  0.11264  0.17162  1.0000
  O   O55       1.0  0.45528  0.11396  0.17006  1.0000
  O   O56       1.0  0.00186  0.04625  0.21831  1.0000
  O   O57       1.0  0.38374  0.04035  0.20366  1.0000
  Ti  Ti29      1.0  0.00475  0.09820  0.25191  1.0000
  Ti  Ti30      1.0  0.37805  0.04124  0.25408  1.0000
  O   O58       1.0  0.43188  0.11525  0.25084  1.0000
  O   O59       1.0  0.33338  0.11104  0.26093  1.0000
  O   O60       1.0  0.25232  0.05074  0.29177  1.0000
  O   O61       1.0  0.00774  0.17130  0.05084  1.0000
  Ti  Ti31      1.0  0.00391  0.22625  0.08475  1.0000
  Ti  Ti32      1.0  0.37945  0.17386  0.08712  1.0000
  O   O62       1.0  0.42736  0.23258  0.07966  1.0000
  O   O63       1.0  0.33510  0.23987  0.08233  1.0000
  O   O64       1.0  0.38300  0.17517  0.13677  1.0000
  O   O65       1.0  0.26160  0.16905  0.11376  1.0000
  Ti  Ti33      1.0  0.37598  0.24216  0.16843  1.0000
  Ti  Ti34      1.0  0.26068  0.17164  0.17386  1.0000
  O   O66       1.0  0.30606  0.23536  0.16745  1.0000
  O   O67       1.0  0.45723  0.23681  0.16638  1.0000
  O   O68       1.0  0.00966  0.17752  0.21977  1.0000
  O   O69       1.0  0.37778  0.17418  0.20336  1.0000
  Ti  Ti35      1.0  0.00542  0.23070  0.25620  1.0000
  Ti  Ti36      1.0  0.37787  0.16920  0.25189  1.0000
  O   O70       1.0  0.42927  0.23499  0.25172  1.0000
  O   O71       1.0  0.33297  0.23145  0.25882  1.0000
  O   O72       1.0  0.25428  0.17212  0.29337  1.0000
  O   O73       1.0  0.01043  0.29406  0.04831  1.0000
  Ti  Ti37      1.0  0.01087  0.35829  0.08249  1.0000
  Ti  Ti38      1.0  0.38117  0.29967  0.07422  1.0000
  O   O74       1.0  0.43444  0.35904  0.08129  1.0000
  O   O75       1.0  0.33626  0.36136  0.08183  1.0000
  O   O76       1.0  0.38026  0.30324  0.13603  1.0000
  O   O77       1.0  0.25670  0.30183  0.11803  1.0000
  Ti  Ti39      1.0  0.38489  0.35947  0.16791  1.0000
  Ti  Ti40      1.0  0.25000  0.29955  0.16828  1.0000
  O   O78       1.0  0.31056  0.36187  0.16981  1.0000
  O   O79       1.0  0.45865  0.35949  0.17038  1.0000
  O   O80       1.0  0.00653  0.29450  0.22072  1.0000
  O   O81       1.0  0.38172  0.29570  0.20393  1.0000
  Ti  Ti41      1.0  0.01862  0.35115  0.25773  1.0000
  Ti  Ti42      1.0  0.38482  0.29566  0.25479  1.0000
  O   O82       1.0  0.43193  0.35773  0.25562  1.0000
  O   O83       1.0  0.33458  0.36312  0.25564  1.0000
  O   O84       1.0  0.26348  0.29726  0.29001  1.0000
  O   O85       1.0  0.01065  0.41751  0.04864  1.0000
  Ti  Ti43      1.0  0.01142  0.47497  0.07840  1.0000
  Ti  Ti44      1.0  0.38961  0.42183  0.08530  1.0000
  O   O86       1.0  0.43417  0.48658  0.07999  1.0000
  O   O87       1.0  0.33594  0.48260  0.08096  1.0000
  O   O88       1.0  0.38479  0.42132  0.13381  1.0000
  O   O89       1.0  0.25903  0.42491  0.11619  1.0000
  Ti  Ti45      1.0  0.38338  0.48436  0.16828  1.0000
  Ti  Ti46      1.0  0.26336  0.42443  0.16362  1.0000
  O   O90       1.0  0.30863  0.48278  0.17164  1.0000
  O   O91       1.0  0.45932  0.48257  0.16409  1.0000
  O   O92       1.0  0.00538  0.41755  0.22149  1.0000
  O   O93       1.0  0.38603  0.42349  0.20286  1.0000
  Ti  Ti47      1.0  0.00751  0.47508  0.25989  1.0000
  Ti  Ti48      1.0  0.39026  0.41973  0.25164  1.0000
  O   O94       1.0  0.42959  0.48128  0.26212  1.0000
  O   O95       1.0  0.33408  0.48466  0.26093  1.0000
  O   O96       1.0  0.25663  0.41978  0.29076  1.0000
  O   O97       1.0  0.13568  0.04121  0.02250  1.0000
  H   H1        1.0  0.16385  0.06498  0.01007  1.0000
  H   H2        1.0  0.14326  0.00535  0.01489  1.0000
  O   O98       1.0  0.12526  0.04441  0.30591  1.0000
  H   H3        1.0  0.14159  0.47150  0.31113  1.0000
  H   H4        1.0  0.19897  0.05021  0.36351  1.0000
  O   O99       1.0  0.13696  0.17839  0.03034  1.0000
  H   H5        1.0  0.19212  0.16049  0.97591  1.0000
  H   H6        1.0  0.10993  0.15790  0.01477  1.0000
  O   O100      1.0  0.13893  0.17586  0.30736  1.0000
  H   H7        1.0  0.33005  0.27462  0.42631  1.0000
  H   H8        1.0  0.16622  0.15972  0.32073  1.0000
  O   O101      1.0  0.14649  0.28967  0.02919  1.0000
  H   H9        1.0  0.18351  0.29958  0.02964  1.0000
  H   H10       1.0  0.14334  0.24846  0.02407  1.0000
  O   O102      1.0  0.24587  0.36839  0.46515  1.0000
  H   H11       1.0  0.24114  0.35018  0.48980  1.0000
  H   H12       1.0  0.24466  0.33672  0.44815  1.0000
  O   O103      1.0  0.13777  0.42552  0.02375  1.0000
  H   H13       1.0  0.11469  0.39842  0.00923  1.0000
  H   H14       1.0  0.17117  0.41547  0.01497  1.0000
  O   O104      1.0  0.13504  0.43212  0.30711  1.0000
  H   H15       1.0  0.16007  0.40683  0.32145  1.0000
  H   H16       1.0  0.26447  0.40616  0.31422  1.0000
  O   O105      1.0  0.37469  0.05558  0.02222  1.0000
  H   H17       1.0  0.40063  0.04178  0.00541  1.0000
  H   H18       1.0  0.31449  0.26407  0.94390  1.0000
  O   O106      1.0  0.38811  0.05606  0.30992  1.0000
  H   H19       1.0  0.38853  0.09974  0.31240  1.0000
  H   H20       1.0  0.42042  0.03880  0.31775  1.0000
  O   O107      1.0  0.36175  0.17089  0.02953  1.0000
  H   H21       1.0  0.36824  0.13236  0.02156  1.0000
  H   H22       1.0  0.32430  0.17573  0.03201  1.0000
  O   O108      1.0  0.30266  0.02634  0.40813  1.0000
  H   H23       1.0  0.30580  0.01679  0.38262  1.0000
  H   H24       1.0  0.27662  0.05496  0.41246  1.0000
  O   O109      1.0  0.38350  0.31411  0.02694  1.0000
  H   H25       1.0  0.00552  0.20727  0.93096  1.0000
  H   H26       1.0  0.38785  0.37798  0.02610  1.0000
  O   O110      1.0  0.38628  0.30582  0.31144  1.0000
  H   H27       1.0  0.36953  0.27902  0.32825  1.0000
  H   H28       1.0  0.38723  0.34406  0.32331  1.0000
  O   O111      1.0  0.38984  0.42088  0.02801  1.0000
  H   H29       1.0  0.35734  0.43682  0.01824  1.0000
  H   H30       1.0  0.40714  0.29438  0.01108  1.0000
  O   O112      1.0  0.38090  0.41711  0.31183  1.0000
  H   H31       1.0  0.40875  0.43559  0.32602  1.0000
  H   H32       1.0  0.34804  0.43640  0.31843  1.0000
  H   H33       1.0  0.29962  0.20598  0.83218  1.0000
  H   H34       1.0  0.28830  0.14491  0.82316  1.0000
  O   O113      1.0  0.27098  0.18016  0.83142  1.0000
  H   H35       1.0  0.48115  0.47840  0.58011  1.0000
  H   H36       1.0  0.44630  0.00717  0.55384  1.0000
  O   O114      1.0  0.48213  0.49697  0.55674  1.0000
  H   H37       1.0  0.47344  0.20500  0.51183  1.0000
  H   H38       1.0  0.47238  0.15038  0.48840  1.0000
  O   O115      1.0  0.49330  0.17401  0.50344  1.0000
  H   H39       1.0  0.15009  0.24953  0.31481  1.0000
  H   H40       1.0  0.19088  0.29944  0.32018  1.0000
  O   O116      1.0  0.15462  0.29133  0.32027  1.0000
  H   H41       1.0  0.44126  0.12328  0.91450  1.0000
  H   H42       1.0  0.42434  0.06462  0.93683  1.0000
  O   O117      1.0  0.41418  0.09517  0.91876  1.0000
  H   H43       1.0  0.04254  0.42517  0.86627  1.0000
  H   H44       1.0  0.10224  0.44021  0.85885  1.0000
  O   O118      1.0  0.07411  0.44143  0.87518  1.0000
  H   H45       1.0  0.34265  0.03283  0.01549  1.0000
  H   H46       1.0  0.36861  0.24118  0.93843  1.0000
  O   O119      1.0  0.33828  0.25310  0.92553  1.0000
  H   H47       1.0  0.38419  0.33401  0.91985  1.0000
  H   H48       1.0  0.35912  0.39230  0.92835  1.0000
  O   O120      1.0  0.39252  0.37469  0.92727  1.0000
  H   H49       1.0  0.40201  0.44434  0.44219  1.0000
  H   H50       1.0  0.35638  0.42677  0.46963  1.0000
  O   O121      1.0  0.38491  0.41307  0.45303  1.0000
  H   H51       1.0  0.08657  0.25343  0.86715  1.0000
  H   H52       1.0  0.07300  0.31763  0.86886  1.0000
  O   O122      1.0  0.09520  0.28802  0.87951  1.0000
  H   H53       1.0  0.23096  0.09443  0.90134  1.0000
  H   H54       1.0  0.24627  0.14950  0.87919  1.0000
  O   O123      1.0  0.23979  0.13625  0.90244  1.0000
  H   H55       1.0  0.05099  0.37665  0.97224  1.0000
  H   H56       1.0  0.10748  0.34328  0.97732  1.0000
  O   O124      1.0  0.08879  0.37923  0.97723  1.0000
  H   H57       1.0  0.35678  0.09868  0.80586  1.0000
  H   H58       1.0  0.32829  0.06546  0.83646  1.0000
  O   O125      1.0  0.32238  0.08701  0.81312  1.0000
  H   H59       1.0  0.13024  0.35061  0.44645  1.0000
  H   H60       1.0  0.17482  0.35584  0.47337  1.0000
  O   O126      1.0  0.13992  0.34176  0.47164  1.0000
  H   H61       1.0  0.03394  0.13590  0.01671  1.0000
  H   H62       1.0  0.05084  0.10108  0.98004  1.0000
  O   O127      1.0  0.05693  0.13860  0.99520  1.0000
  H   H63       1.0  0.25967  0.00833  0.58002  1.0000
  H   H64       1.0  0.30638  0.47335  0.60031  1.0000
  O   O128      1.0  0.28050  0.00407  0.60181  1.0000
  H   H65       1.0  0.14966  0.06591  0.32097  1.0000
  H   H66       1.0  0.22369  0.07414  0.32852  1.0000
  O   O129      1.0  0.19569  0.08104  0.34521  1.0000
  H   H67       1.0  0.15329  0.39897  0.75830  1.0000
  H   H68       1.0  0.18445  0.36712  0.78673  1.0000
  O   O130      1.0  0.15220  0.36380  0.77245  1.0000
  H   H69       1.0  0.33047  0.12639  0.96718  1.0000
  H   H70       1.0  0.29300  0.13038  0.93479  1.0000
  O   O131      1.0  0.30762  0.10434  0.95258  1.0000
  H   H71       1.0  0.10884  0.26954  0.50997  1.0000
  H   H72       1.0  0.15701  0.28298  0.52953  1.0000
  O   O132      1.0  0.12670  0.26077  0.53212  1.0000
  H   H73       1.0  0.14208  0.00290  0.39476  1.0000
  H   H74       1.0  0.19269  0.49198  0.41752  1.0000
  O   O133      1.0  0.17968  0.49719  0.39429  1.0000
  H   H75       1.0  0.47208  0.02211  0.97071  1.0000
  H   H76       1.0  0.43620  0.47286  0.97278  1.0000
  O   O134      1.0  0.43420  0.01368  0.97067  1.0000
  H   H77       1.0  0.37443  0.35325  0.51581  1.0000
  H   H78       1.0  0.32457  0.33822  0.54083  1.0000
  O   O135      1.0  0.34567  0.37002  0.52982  1.0000
  H   H79       1.0  0.26643  0.27863  0.00503  1.0000
  H   H80       1.0  0.23064  0.25227  0.97481  1.0000
  O   O136      1.0  0.25920  0.27955  0.97969  1.0000
  H   H81       1.0  0.19679  0.10810  0.53211  1.0000
  H   H82       1.0  0.19567  0.04146  0.52961  1.0000
  O   O137      1.0  0.20780  0.07619  0.51694  1.0000
  H   H83       1.0  0.11388  0.27515  0.65961  1.0000
  H   H84       1.0  0.15373  0.31704  0.65041  1.0000
  O   O138      1.0  0.11660  0.31468  0.65058  1.0000
  H   H85       1.0  0.27393  0.11650  0.46212  1.0000
  H   H86       1.0  0.22225  0.08465  0.46676  1.0000
  O   O139      1.0  0.24573  0.10162  0.44976  1.0000
  H   H87       1.0  0.48587  0.45458  0.52277  1.0000
  H   H88       1.0  0.48997  0.41419  0.48924  1.0000
  O   O140      1.0  0.00506  0.44517  0.50173  1.0000
  H   H89       1.0  0.44047  0.17544  0.30262  1.0000
  H   H90       1.0  0.38877  0.18731  0.32867  1.0000
  O   O141      1.0  0.40278  0.16486  0.30849  1.0000
  H   H91       1.0  0.17190  0.44632  0.54118  1.0000
  H   H92       1.0  0.17322  0.47962  0.57560  1.0000
  O   O142      1.0  0.19597  0.46813  0.55639  1.0000
  H   H93       1.0  0.04743  0.05684  0.47490  1.0000
  H   H94       1.0  0.01218  0.00624  0.47542  1.0000
  O   O143      1.0  0.01913  0.03752  0.45973  1.0000
  H   H95       1.0  0.07203  0.35464  0.77849  1.0000
  H   H96       1.0  0.02296  0.34364  0.80233  1.0000
  O   O144      1.0  0.03583  0.36450  0.78219  1.0000
  H   H97       1.0  0.10413  0.22562  0.42530  1.0000
  H   H98       1.0  0.12389  0.27359  0.40154  1.0000
  O   O145      1.0  0.12089  0.23148  0.40215  1.0000
  H   H99       1.0  0.36592  0.12483  0.46381  1.0000
  H   H100      1.0  0.33890  0.16351  0.48892  1.0000
  O   O146      1.0  0.33959  0.15362  0.46395  1.0000
  H   H101      1.0  0.00268  0.31795  0.75369  1.0000
  H   H102      1.0  0.48528  0.28285  0.71964  1.0000
  O   O147      1.0  0.48243  0.28491  0.74499  1.0000
  H   H103      1.0  0.01776  0.28523  0.02391  1.0000
  H   H104      1.0  0.02908  0.17375  0.90048  1.0000
  O   O148      1.0  0.49670  0.18256  0.91083  1.0000
  H   H105      1.0  0.41652  0.28752  0.75173  1.0000
  H   H106      1.0  0.36477  0.25492  0.74023  1.0000
  O   O149      1.0  0.37803  0.28740  0.75604  1.0000
  H   H107      1.0  0.01463  0.10458  0.77432  1.0000
  H   H108      1.0  0.00805  0.03372  0.76843  1.0000
  O   O150      1.0  0.03039  0.06963  0.76785  1.0000
  H   H109      1.0  0.03744  0.11876  0.35107  1.0000
  H   H110      1.0  0.01798  0.06515  0.33470  1.0000
  O   O151      1.0  0.02132  0.08232  0.35798  1.0000
  H   H111      1.0  0.44841  0.17984  0.62924  1.0000
  H   H112      1.0  0.00116  0.16780  0.61452  1.0000
  O   O152      1.0  0.48452  0.18615  0.63295  1.0000
  H   H113      1.0  0.48259  0.05712  0.86084  1.0000
  H   H114      1.0  0.42826  0.06995  0.87518  1.0000
  O   O153      1.0  0.44644  0.05947  0.85214  1.0000
  H   H115      1.0  0.48957  0.35345  0.85239  1.0000
  H   H116      1.0  0.49089  0.28829  0.84703  1.0000
  O   O154      1.0  0.01016  0.32485  0.84205  1.0000
  H   H117      1.0  0.49976  0.08685  0.56073  1.0000
  H   H118      1.0  0.01311  0.14411  0.54415  1.0000
  O   O155      1.0  0.01672  0.12252  0.56639  1.0000
  H   H119      1.0  0.46552  0.31785  0.45175  1.0000
  H   H120      1.0  0.42679  0.36630  0.46659  1.0000
  O   O156      1.0  0.45882  0.34191  0.47167  1.0000
  H   H121      1.0  0.06092  0.25104  0.96854  1.0000
  H   H122      1.0  0.03207  0.20557  0.98711  1.0000
  O   O157      1.0  0.02335  0.23786  0.97144  1.0000
  H   H123      1.0  0.05542  0.06564  0.72466  1.0000
  H   H124      1.0  0.05694  0.03901  0.68562  1.0000
  O   O158      1.0  0.07504  0.06413  0.70072  1.0000
  H   H125      1.0  0.28556  0.32729  0.33394  1.0000
  H   H126      1.0  0.31630  0.36285  0.35964  1.0000
  O   O159      1.0  0.28211  0.35980  0.34803  1.0000
  H   H127      1.0  0.41742  0.04122  0.42197  1.0000
  H   H128      1.0  0.36627  0.00918  0.41659  1.0000
  O   O160      1.0  0.40492  0.00368  0.41801  1.0000
  H   H129      1.0  0.05289  0.44243  0.37745  1.0000
  H   H130      1.0  0.04692  0.42113  0.33579  1.0000
  O   O161      1.0  0.03810  0.41512  0.36010  1.0000
  H   H131      1.0  0.28521  0.00418  0.32449  1.0000
  H   H132      1.0  0.33964  0.01268  0.33772  1.0000
  O   O162      1.0  0.30908  0.48699  0.34061  1.0000
  H   H133      1.0  0.41252  0.21113  0.99569  1.0000
  H   H134      1.0  0.45555  0.24297  0.97397  1.0000
  O   O163      1.0  0.41793  0.24092  0.97851  1.0000
  H   H135      1.0  0.17769  0.46638  0.64573  1.0000
  H   H136      1.0  0.21546  0.47989  0.68001  1.0000
  O   O164      1.0  0.19369  0.45284  0.66794  1.0000
  H   H137      1.0  0.12534  0.44695  0.96050  1.0000
  H   H138      1.0  0.09692  0.46216  0.92636  1.0000
  O   O165      1.0  0.11632  0.47790  0.94521  1.0000
  H   H139      1.0  0.32353  0.27816  0.59847  1.0000
  H   H140      1.0  0.31269  0.25099  0.56141  1.0000
  O   O166      1.0  0.30464  0.28202  0.57718  1.0000
  H   H141      1.0  0.08612  0.36094  0.37888  1.0000
  H   H142      1.0  0.14400  0.35579  0.38524  1.0000
  O   O167      1.0  0.11055  0.34878  0.39716  1.0000
  H   H143      1.0  0.39154  0.41863  0.73128  1.0000
  H   H144      1.0  0.40940  0.48019  0.72345  1.0000
  O   O168      1.0  0.39924  0.45666  0.74289  1.0000
  H   H145      1.0  0.30110  0.46214  0.96143  1.0000
  H   H146      1.0  0.28362  0.44937  0.99805  1.0000
  O   O169      1.0  0.31341  0.46505  0.98525  1.0000
  H   H147      1.0  0.22543  0.34628  0.96991  1.0000
  H   H148      1.0  0.21579  0.40254  0.95145  1.0000
  O   O170      1.0  0.20065  0.37838  0.96804  1.0000
  H   H149      1.0  0.11661  0.49776  0.71405  1.0000
  H   H150      1.0  0.14869  0.44481  0.70186  1.0000
  O   O171      1.0  0.12626  0.45984  0.72108  1.0000
  H   H151      1.0  0.14324  0.20409  0.81288  1.0000
  H   H152      1.0  0.12468  0.13855  0.80776  1.0000
  O   O172      1.0  0.11327  0.17491  0.81779  1.0000
  H   H153      1.0  0.22000  0.21111  0.81511  1.0000
  H   H154      1.0  0.19630  0.26916  0.82237  1.0000
  O   O173      1.0  0.19178  0.23575  0.80609  1.0000
  H   H155      1.0  0.03735  0.20796  0.47208  1.0000
  H   H156      1.0  0.02436  0.24076  0.44302  1.0000
  O   O174      1.0  0.05508  0.23330  0.45726  1.0000
  H   H157      1.0  0.12098  0.39819  0.49614  1.0000
  H   H158      1.0  0.07315  0.43639  0.50883  1.0000
  O   O175      1.0  0.11086  0.43107  0.51159  1.0000
  H   H159      1.0  0.00476  0.32587  0.66793  1.0000
  H   H160      1.0  0.48593  0.26299  0.66041  1.0000
  O   O176      1.0  0.47867  0.29795  0.67386  1.0000
  H   H161      1.0  0.24906  0.26272  0.40743  1.0000
  H   H162      1.0  0.27184  0.31423  0.38749  1.0000
  O   O177      1.0  0.26358  0.30160  0.41130  1.0000
  H   H163      1.0  0.44828  0.12201  0.43352  1.0000
  H   H164      1.0  0.46702  0.07870  0.46374  1.0000
  O   O178      1.0  0.43597  0.10324  0.45536  1.0000
  H   H165      1.0  0.41612  0.49671  0.83746  1.0000
  H   H166      1.0  0.42909  0.45968  0.80717  1.0000
  O   O179      1.0  0.40510  0.45957  0.82606  1.0000
  H   H167      1.0  0.45973  0.46363  0.75962  1.0000
  H   H168      1.0  0.00551  0.43446  0.77737  1.0000
  O   O180      1.0  0.48727  0.47170  0.77552  1.0000
  H   H169      1.0  0.46323  0.12317  0.37660  1.0000
  H   H170      1.0  0.46434  0.18822  0.38121  1.0000
  O   O181      1.0  0.44358  0.15592  0.38778  1.0000
  H   H171      1.0  0.22248  0.06262  0.72519  1.0000
  H   H172      1.0  0.16889  0.09599  0.71175  1.0000
  O   O182      1.0  0.19503  0.09040  0.73201  1.0000
  H   H173      1.0  0.48982  0.29401  0.58688  1.0000
  H   H174      1.0  0.43339  0.29421  0.60101  1.0000
  O   O183      1.0  0.45567  0.31024  0.58337  1.0000
  H   H175      1.0  0.36486  0.12186  0.61733  1.0000
  H   H176      1.0  0.39958  0.11303  0.58408  1.0000
  O   O184      1.0  0.39223  0.13889  0.60207  1.0000
  H   H177      1.0  0.02049  0.46331  0.67772  1.0000
  H   H178      1.0  0.01353  0.48567  0.64202  1.0000
  O   O185      1.0  0.01305  0.00023  0.66586  1.0000
  H   H179      1.0  0.30692  0.36403  0.87222  1.0000
  H   H180      1.0  0.30638  0.32130  0.90630  1.0000
  O   O186      1.0  0.28540  0.34748  0.89291  1.0000
  H   H181      1.0  0.22789  0.21531  0.73622  1.0000
  H   H182      1.0  0.23292  0.15011  0.73475  1.0000
  O   O187      1.0  0.25472  0.18285  0.72886  1.0000
  H   H183      1.0  0.24566  0.10314  0.97573  1.0000
  H   H184      1.0  0.23846  0.06913  0.01053  1.0000
  O   O188      1.0  0.22134  0.08328  0.99042  1.0000
  H   H185      1.0  0.08111  0.20322  0.36588  1.0000
  H   H186      1.0  0.09021  0.18452  0.32978  1.0000
  O   O189      1.0  0.06020  0.18962  0.34654  1.0000
  H   H187      1.0  0.27956  0.14972  0.33413  1.0000
  H   H188      1.0  0.25910  0.15492  0.37163  1.0000
  O   O190      1.0  0.29012  0.14197  0.35828  1.0000
  H   H189      1.0  0.18466  0.45146  0.82112  1.0000
  H   H190      1.0  0.14500  0.00043  0.81982  1.0000
  O   O191      1.0  0.15925  0.47198  0.83552  1.0000
  H   H191      1.0  0.36949  0.02495  0.58383  1.0000
  H   H192      1.0  0.35118  0.04429  0.54634  1.0000
  O   O192      1.0  0.38256  0.04406  0.56266  1.0000
  H   H193      1.0  0.30589  0.01857  0.50009  1.0000
  H   H194      1.0  0.27938  0.07031  0.51838  1.0000
  O   O193      1.0  0.31393  0.05177  0.51529  1.0000
  H   H195      1.0  0.42970  0.43162  0.60531  1.0000
  H   H196      1.0  0.48626  0.40878  0.60406  1.0000
  O   O194      1.0  0.46497  0.43637  0.61531  1.0000
  H   H197      1.0  0.13055  0.07184  0.49398  1.0000
  H   H198      1.0  0.09078  0.11599  0.51140  1.0000
  O   O195      1.0  0.09471  0.08636  0.49461  1.0000
  H   H199      1.0  0.34759  0.05605  0.90039  1.0000
  H   H200      1.0  0.30711  0.00567  0.88733  1.0000
  O   O196      1.0  0.32952  0.03655  0.88062  1.0000
  H   H201      1.0  0.27214  0.38944  0.81324  1.0000
  H   H202      1.0  0.26304  0.44100  0.78909  1.0000
  O   O197      1.0  0.24458  0.41755  0.80475  1.0000
  H   H203      1.0  0.35460  0.30379  0.65053  1.0000
  H   H204      1.0  0.36497  0.24024  0.66406  1.0000
  O   O198      1.0  0.35832  0.26389  0.64279  1.0000
  H   H205      1.0  0.08560  0.30026  0.61508  1.0000
  H   H206      1.0  0.08922  0.28575  0.57472  1.0000
  O   O199      1.0  0.06728  0.29641  0.59310  1.0000
  H   H207      1.0  0.14672  0.24717  0.95718  1.0000
  H   H208      1.0  0.10865  0.27807  0.92885  1.0000
  O   O200      1.0  0.11516  0.26822  0.95275  1.0000
  H   H209      1.0  0.05129  0.02096  0.87867  1.0000
  H   H210      1.0  0.06357  0.08790  0.88475  1.0000
  O   O201      1.0  0.03370  0.05706  0.88491  1.0000
  H   H211      1.0  0.24711  0.46501  0.91111  1.0000
  H   H212      1.0  0.28882  0.41006  0.90914  1.0000
  O   O202      1.0  0.28134  0.44830  0.92045  1.0000
  H   H213      1.0  0.06505  0.01970  0.42084  1.0000
  H   H214      1.0  0.06615  0.03311  0.37992  1.0000
  O   O203      1.0  0.08004  0.00804  0.39761  1.0000
  H   H215      1.0  0.21759  0.23736  0.63100  1.0000
  H   H216      1.0  0.24087  0.26004  0.59674  1.0000
  O   O204      1.0  0.21164  0.23868  0.60620  1.0000
  H   H217      1.0  0.45665  0.13279  0.71582  1.0000
  H   H218      1.0  0.43039  0.11321  0.74976  1.0000
  O   O205      1.0  0.42655  0.11332  0.72539  1.0000
  H   H219      1.0  0.42008  0.15637  0.80490  1.0000
  H   H220      1.0  0.43450  0.09786  0.81820  1.0000
  O   O206      1.0  0.42279  0.11856  0.79533  1.0000
  H   H221      1.0  0.44122  0.40323  0.89537  1.0000
  H   H222      1.0  0.43159  0.41596  0.85608  1.0000
  O   O207      1.0  0.46005  0.40465  0.87208  1.0000
  H   H223      1.0  0.16306  0.31294  0.85661  1.0000
  H   H224      1.0  0.22312  0.32010  0.86514  1.0000
  O   O208      1.0  0.19663  0.31949  0.84667  1.0000
  H   H225      1.0  0.05791  0.18860  0.78971  1.0000
  H   H226      1.0  0.01052  0.22199  0.76831  1.0000
  O   O209      1.0  0.01904  0.19057  0.78442  1.0000
  H   H227      1.0  0.39472  0.25851  0.82674  1.0000
  H   H228      1.0  0.35275  0.27362  0.79549  1.0000
  O   O210      1.0  0.35904  0.27205  0.82202  1.0000
  H   H229      1.0  0.40390  0.37007  0.38403  1.0000
  H   H230      1.0  0.36575  0.37396  0.41334  1.0000
  O   O211      1.0  0.36782  0.35854  0.38879  1.0000
  H   H231      1.0  0.40220  0.34654  0.68939  1.0000
  H   H232      1.0  0.37133  0.32818  0.72095  1.0000
  O   O212      1.0  0.37265  0.35760  0.70131  1.0000
  H   H233      1.0  0.27394  0.00186  0.72340  1.0000
  H   H234      1.0  0.28455  0.03304  0.68548  1.0000
  O   O213      1.0  0.25702  0.01965  0.70159  1.0000
  H   H235      1.0  0.07738  0.41340  0.70194  1.0000
  H   H236      1.0  0.07961  0.36375  0.67592  1.0000
  O   O214      1.0  0.05595  0.38963  0.68524  1.0000
  H   H237      1.0  0.48484  0.46198  0.35661  1.0000
  H   H238      1.0  0.43341  0.48229  0.37691  1.0000
  O   O215      1.0  0.45201  0.48174  0.35327  1.0000
  H   H239      1.0  0.01050  0.16336  0.67060  1.0000
  H   H240      1.0  0.03414  0.12222  0.69691  1.0000
  O   O216      1.0  0.01426  0.15783  0.69613  1.0000
  H   H241      1.0  0.31107  0.04514  0.63272  1.0000
  H   H242      1.0  0.35235  0.05581  0.66335  1.0000
  O   O217      1.0  0.32597  0.07509  0.64838  1.0000
  H   H243      1.0  0.19280  0.42761  0.37094  1.0000
  H   H244      1.0  0.22974  0.38254  0.35768  1.0000
  O   O218      1.0  0.19099  0.39536  0.35733  1.0000
  H   H245      1.0  0.32032  0.18779  0.72154  1.0000
  H   H246      1.0  0.38020  0.16726  0.71833  1.0000
  O   O219      1.0  0.35560  0.19938  0.71399  1.0000
  H   H247      1.0  0.42457  0.25686  0.42129  1.0000
  H   H248      1.0  0.46153  0.29108  0.39568  1.0000
  O   O220      1.0  0.46147  0.27003  0.41839  1.0000
  H   H249      1.0  0.27498  0.35321  0.64306  1.0000
  H   H250      1.0  0.32226  0.37593  0.66692  1.0000
  O   O221      1.0  0.30447  0.37841  0.64493  1.0000
  H   H251      1.0  0.48893  0.36881  0.36663  1.0000
  H   H252      1.0  0.47545  0.31289  0.34243  1.0000
  O   O222      1.0  0.46389  0.33673  0.36439  1.0000
  H   H253      1.0  0.18713  0.19119  0.58059  1.0000
  H   H254      1.0  0.14637  0.18822  0.54931  1.0000
  O   O223      1.0  0.17026  0.16301  0.56266  1.0000
  H   H255      1.0  0.35343  0.40703  0.82772  1.0000
  H   H256      1.0  0.34736  0.34149  0.83197  1.0000
  O   O224      1.0  0.32850  0.37735  0.83522  1.0000
  H   H257      1.0  0.47635  0.19459  0.85742  1.0000
  H   H258      1.0  0.47873  0.20453  0.81661  1.0000
  O   O225      1.0  0.45980  0.21465  0.83781  1.0000
  H   H259      1.0  0.13259  0.17716  0.68246  1.0000
  H   H260      1.0  0.07858  0.20022  0.69781  1.0000
  O   O226      1.0  0.11582  0.21012  0.69248  1.0000
  H   H261      1.0  0.33242  0.19878  0.36039  1.0000
  H   H262      1.0  0.36807  0.24007  0.38161  1.0000
  O   O227      1.0  0.35891  0.22735  0.35650  1.0000
  H   H263      1.0  0.15416  0.07071  0.77580  1.0000
  H   H264      1.0  0.09623  0.06078  0.78031  1.0000
  O   O228      1.0  0.12896  0.06195  0.79443  1.0000
  H   H265      1.0  0.07949  0.09922  0.58715  1.0000
  H   H266      1.0  0.13469  0.12448  0.58863  1.0000
  O   O229      1.0  0.11190  0.09633  0.59926  1.0000
  H   H267      1.0  0.16285  0.25183  0.71437  1.0000
  H   H268      1.0  0.17639  0.29064  0.74532  1.0000
  O   O230      1.0  0.19249  0.27296  0.72483  1.0000
  H   H269      1.0  0.18503  0.21002  0.39731  1.0000
  H   H270      1.0  0.21617  0.17167  0.42369  1.0000
  O   O231      1.0  0.22070  0.19801  0.40317  1.0000
  H   H271      1.0  0.20324  0.17230  0.93404  1.0000
  H   H272      1.0  0.23387  0.17660  0.03219  1.0000
  O   O232      1.0  0.18904  0.18759  0.95633  1.0000
  H   H273      1.0  0.45630  0.36542  0.97023  1.0000
  H   H274      1.0  0.48386  0.38816  0.00345  1.0000
  O   O233      1.0  0.48715  0.38274  0.97905  1.0000
  H   H275      1.0  0.18628  0.13443  0.66110  1.0000
  H   H276      1.0  0.12799  0.11185  0.64916  1.0000
  O   O234      1.0  0.15035  0.12022  0.66933  1.0000
  H   H277      1.0  0.30686  0.03056  0.77675  1.0000
  H   H278      1.0  0.33474  0.48449  0.75264  1.0000
  O   O235      1.0  0.30054  0.00061  0.75890  1.0000
  H   H279      1.0  0.35245  0.41256  0.56809  1.0000
  H   H280      1.0  0.34282  0.39346  0.60879  1.0000
  O   O236      1.0  0.35956  0.42132  0.59223  1.0000
  H   H281      1.0  0.02273  0.18603  0.31005  1.0000
  H   H282      1.0  0.35680  0.21920  0.44015  1.0000
  O   O237      1.0  0.36301  0.25156  0.42609  1.0000
  H   H283      1.0  0.21002  0.36466  0.62018  1.0000
  H   H284      1.0  0.20958  0.40844  0.59293  1.0000
  O   O238      1.0  0.20787  0.36760  0.59508  1.0000
  H   H285      1.0  0.10344  0.16532  0.86379  1.0000
  H   H286      1.0  0.12236  0.16224  0.90136  1.0000
  O   O239      1.0  0.09328  0.15176  0.88756  1.0000
  H   H287      1.0  0.43980  0.29709  0.50000  1.0000
  H   H288      1.0  0.43500  0.28214  0.54167  1.0000
  O   O240      1.0  0.42883  0.26821  0.51783  1.0000
  O   O241      1.0  0.30264  0.46535  0.46901  1.0000
  H   H289      1.0  0.29716  0.48401  0.44607  1.0000
  H   H290      1.0  0.27796  0.43481  0.46958  1.0000
  O   O242      1.0  0.21592  0.32926  0.66552  1.0000
  H   H291      1.0  0.21897  0.30653  0.68783  1.0000
  H   H292      1.0  0.20637  0.36467  0.67519  1.0000
  O   O243      1.0  0.33955  0.20280  0.53212  1.0000
  H   H293      1.0  0.35092  0.17645  0.54922  1.0000
  H   H294      1.0  0.37138  0.21850  0.52307  1.0000
  O   O244      1.0  0.07762  0.41617  0.58283  1.0000
  H   H295      1.0  0.07866  0.37422  0.58496  1.0000
  H   H296      1.0  0.09108  0.41864  0.55853  1.0000
  O   O245      1.0  0.24489  0.17327  0.66256  1.0000
  H   H297      1.0  0.25101  0.18525  0.68711  1.0000
  H   H298      1.0  0.26853  0.14229  0.65417  1.0000
  O   O246      1.0  0.20438  0.01922  0.89851  1.0000
  H   H299      1.0  0.19539  0.00367  0.87402  1.0000
  H   H300      1.0  0.17170  0.02495  0.91217  1.0000
  O   O247      1.0  0.14359  0.49462  0.61174  1.0000
  H   H301      1.0  0.11654  0.46747  0.60649  1.0000
  H   H302      1.0  0.13279  0.03536  0.60932  1.0000
  O   O248      1.0  0.03881  0.04828  0.95651  1.0000
  H   H303      1.0  0.03635  0.05690  0.93133  1.0000
  H   H304      1.0  0.07070  0.02485  0.95753  1.0000
  O   O249      1.0  0.40763  0.02528  0.68421  1.0000
  H   H305      1.0  0.41401  0.05841  0.69979  1.0000
  H   H306      1.0  0.44021  0.02349  0.67057  1.0000
  O   O250      1.0  0.22034  0.32960  0.52650  1.0000
  H   H307      1.0  0.24315  0.30331  0.53930  1.0000
  H   H308      1.0  0.21081  0.35249  0.54692  1.0000
  O   O251      1.0  0.26100  0.54633  0.05047  1.0000
  Ti  Ti49      1.0  0.25704  0.60636  0.08905  1.0000
  Ti  Ti50      1.0  0.12900  0.54919  0.08414  1.0000
  O   O252      1.0  0.18346  0.60727  0.08736  1.0000
  O   O253      1.0  0.08575  0.60775  0.07838  1.0000
  O   O254      1.0  0.13362  0.54381  0.13336  1.0000
  O   O255      1.0  0.00960  0.54914  0.11540  1.0000
  Ti  Ti51      1.0  0.13175  0.61109  0.16723  1.0000
  Ti  Ti52      1.0  0.00485  0.54641  0.16359  1.0000
  O   O256      1.0  0.05605  0.60642  0.16808  1.0000
  O   O257      1.0  0.20633  0.60480  0.16825  1.0000
  O   O258      1.0  0.26272  0.54530  0.22323  1.0000
  O   O259      1.0  0.13201  0.54536  0.20160  1.0000
  Ti  Ti53      1.0  0.25147  0.61088  0.26028  1.0000
  Ti  Ti54      1.0  0.12375  0.54833  0.25750  1.0000
  O   O260      1.0  0.17799  0.61160  0.25315  1.0000
  O   O261      1.0  0.08190  0.61316  0.25127  1.0000
  O   O262      1.0  0.00489  0.54455  0.28647  1.0000
  O   O263      1.0  0.26230  0.67158  0.04901  1.0000
  Ti  Ti55      1.0  0.25463  0.73576  0.08947  1.0000
  Ti  Ti56      1.0  0.13621  0.67510  0.07857  1.0000
  O   O264      1.0  0.18463  0.73505  0.08556  1.0000
  O   O265      1.0  0.08461  0.72960  0.08252  1.0000
  O   O266      1.0  0.13431  0.67187  0.13680  1.0000
  O   O267      1.0  0.00696  0.67171  0.11857  1.0000
  Ti  Ti57      1.0  0.13316  0.73211  0.16504  1.0000
  Ti  Ti58      1.0  0.01294  0.67189  0.17042  1.0000
  O   O268      1.0  0.05720  0.73535  0.16673  1.0000
  O   O269      1.0  0.20878  0.73243  0.16709  1.0000
  O   O270      1.0  0.26171  0.67512  0.21992  1.0000
  O   O271      1.0  0.13166  0.66979  0.20037  1.0000
  Ti  Ti59      1.0  0.26098  0.73465  0.26292  1.0000
  Ti  Ti60      1.0  0.13300  0.67333  0.25375  1.0000
  O   O272      1.0  0.18316  0.73525  0.25174  1.0000
  O   O273      1.0  0.08563  0.73535  0.25435  1.0000
  O   O274      1.0  0.49960  0.67376  0.29151  1.0000
  O   O275      1.0  0.25543  0.79442  0.05256  1.0000
  Ti  Ti61      1.0  0.25963  0.85895  0.07788  1.0000
  Ti  Ti62      1.0  0.12978  0.79870  0.08538  1.0000
  O   O276      1.0  0.18145  0.85813  0.08095  1.0000
  O   O277      1.0  0.08628  0.85551  0.07676  1.0000
  O   O278      1.0  0.12786  0.79390  0.13477  1.0000
  O   O279      1.0  0.00789  0.80153  0.11900  1.0000
  Ti  Ti63      1.0  0.12921  0.86115  0.16944  1.0000
  Ti  Ti64      1.0  0.00390  0.79692  0.16731  1.0000
  O   O280      1.0  0.05607  0.86241  0.17058  1.0000
  O   O281      1.0  0.20577  0.86048  0.16982  1.0000
  O   O282      1.0  0.25954  0.79823  0.21945  1.0000
  O   O283      1.0  0.12927  0.79709  0.20112  1.0000
  Ti  Ti65      1.0  0.26299  0.85912  0.25178  1.0000
  Ti  Ti66      1.0  0.13833  0.79502  0.24947  1.0000
  O   O284      1.0  0.18149  0.85559  0.25644  1.0000
  O   O285      1.0  0.09063  0.85915  0.26159  1.0000
  O   O286      1.0  0.01358  0.79620  0.28961  1.0000
  O   O287      1.0  0.25752  0.91812  0.04871  1.0000
  Ti  Ti67      1.0  0.25994  0.98405  0.07686  1.0000
  Ti  Ti68      1.0  0.13883  0.92340  0.08520  1.0000
  O   O288      1.0  0.18344  0.98132  0.08120  1.0000
  O   O289      1.0  0.08621  0.98433  0.08213  1.0000
  O   O290      1.0  0.13405  0.91989  0.13463  1.0000
  O   O291      1.0  0.00862  0.91800  0.11519  1.0000
  Ti  Ti69      1.0  0.13481  0.98692  0.16991  1.0000
  Ti  Ti70      1.0  0.00972  0.92311  0.17348  1.0000
  O   O292      1.0  0.05983  0.98605  0.17129  1.0000
  O   O293      1.0  0.21168  0.98420  0.17149  1.0000
  O   O294      1.0  0.25251  0.92393  0.22325  1.0000
  O   O295      1.0  0.13394  0.92170  0.20379  1.0000
  Ti  Ti71      1.0  0.25371  0.98557  0.25713  1.0000
  Ti  Ti72      1.0  0.14040  0.92310  0.25491  1.0000
  O   O296      1.0  0.18277  0.98923  0.25304  1.0000
  O   O297      1.0  0.08425  0.98232  0.25238  1.0000
  O   O298      1.0  0.00724  0.91776  0.28954  1.0000
  O   O299      1.0  0.00949  0.54273  0.04469  1.0000
  Ti  Ti73      1.0  0.00653  0.59925  0.07642  1.0000
  Ti  Ti74      1.0  0.38474  0.54645  0.08480  1.0000
  O   O300      1.0  0.43111  0.60569  0.08301  1.0000
  O   O301      1.0  0.33401  0.60822  0.08407  1.0000
  O   O302      1.0  0.38235  0.54753  0.13681  1.0000
  O   O303      1.0  0.25880  0.54416  0.12050  1.0000
  Ti  Ti75      1.0  0.38702  0.60952  0.17088  1.0000
  Ti  Ti76      1.0  0.25558  0.54687  0.17079  1.0000
  O   O304      1.0  0.30883  0.61264  0.17162  1.0000
  O   O305      1.0  0.45528  0.61396  0.17006  1.0000
  O   O306      1.0  0.00186  0.54625  0.21831  1.0000
  O   O307      1.0  0.38374  0.54035  0.20366  1.0000
  Ti  Ti77      1.0  0.00475  0.59820  0.25191  1.0000
  Ti  Ti78      1.0  0.37805  0.54124  0.25408  1.0000
  O   O308      1.0  0.43188  0.61525  0.25084  1.0000
  O   O309      1.0  0.33338  0.61104  0.26093  1.0000
  O   O310      1.0  0.25232  0.55074  0.29177  1.0000
  O   O311      1.0  0.00774  0.67130  0.05084  1.0000
  Ti  Ti79      1.0  0.00391  0.72625  0.08475  1.0000
  Ti  Ti80      1.0  0.37945  0.67386  0.08712  1.0000
  O   O312      1.0  0.42736  0.73258  0.07966  1.0000
  O   O313      1.0  0.33510  0.73987  0.08233  1.0000
  O   O314      1.0  0.38300  0.67517  0.13677  1.0000
  O   O315      1.0  0.26160  0.66905  0.11376  1.0000
  Ti  Ti81      1.0  0.37598  0.74216  0.16843  1.0000
  Ti  Ti82      1.0  0.26068  0.67164  0.17386  1.0000
  O   O316      1.0  0.30606  0.73536  0.16745  1.0000
  O   O317      1.0  0.45723  0.73681  0.16638  1.0000
  O   O318      1.0  0.00966  0.67752  0.21977  1.0000
  O   O319      1.0  0.37778  0.67418  0.20336  1.0000
  Ti  Ti83      1.0  0.00542  0.73070  0.25620  1.0000
  Ti  Ti84      1.0  0.37787  0.66920  0.25189  1.0000
  O   O320      1.0  0.42927  0.73499  0.25172  1.0000
  O   O321      1.0  0.33297  0.73145  0.25882  1.0000
  O   O322      1.0  0.25428  0.67212  0.29337  1.0000
  O   O323      1.0  0.01043  0.79406  0.04831  1.0000
  Ti  Ti85      1.0  0.01087  0.85829  0.08249  1.0000
  Ti  Ti86      1.0  0.38117  0.79967  0.07422  1.0000
  O   O324      1.0  0.43444  0.85904  0.08129  1.0000
  O   O325      1.0  0.33626  0.86136  0.08183  1.0000
  O   O326      1.0  0.38026  0.80324  0.13603  1.0000
  O   O327      1.0  0.25670  0.80183  0.11803  1.0000
  Ti  Ti87      1.0  0.38489  0.85947  0.16791  1.0000
  Ti  Ti88      1.0  0.25000  0.79955  0.16828  1.0000
  O   O328      1.0  0.31056  0.86187  0.16981  1.0000
  O   O329      1.0  0.45865  0.85949  0.17038  1.0000
  O   O330      1.0  0.00653  0.79450  0.22072  1.0000
  O   O331      1.0  0.38172  0.79570  0.20393  1.0000
  Ti  Ti89      1.0  0.01862  0.85115  0.25773  1.0000
  Ti  Ti90      1.0  0.38482  0.79566  0.25479  1.0000
  O   O332      1.0  0.43193  0.85773  0.25562  1.0000
  O   O333      1.0  0.33458  0.86312  0.25564  1.0000
  O   O334      1.0  0.26348  0.79726  0.29001  1.0000
  O   O335      1.0  0.01065  0.91751  0.04864  1.0000
  Ti  Ti91      1.0  0.01142  0.97497  0.07840  1.0000
  Ti  Ti92      1.0  0.38961  0.92183  0.08530  1.0000
  O   O336      1.0  0.43417  0.98658  0.07999  1.0000
  O   O337      1.0  0.33594  0.98260  0.08096  1.0000
  O   O338      1.0  0.38479  0.92132  0.13381  1.0000
  O   O339      1.0  0.25903  0.92491  0.11619  1.0000
  Ti  Ti93      1.0  0.38338  0.98436  0.16828  1.0000
  Ti  Ti94      1.0  0.26336  0.92443  0.16362  1.0000
  O   O340      1.0  0.30863  0.98278  0.17164  1.0000
  O   O341      1.0  0.45932  0.98257  0.16409  1.0000
  O   O342      1.0  0.00538  0.91755  0.22149  1.0000
  O   O343      1.0  0.38603  0.92349  0.20286  1.0000
  Ti  Ti95      1.0  0.00751  0.97508  0.25989  1.0000
  Ti  Ti96      1.0  0.39026  0.91973  0.25164  1.0000
  O   O344      1.0  0.42959  0.98128  0.26212  1.0000
  O   O345      1.0  0.33408  0.98466  0.26093  1.0000
  O   O346      1.0  0.25663  0.91978  0.29076  1.0000
  O   O347      1.0  0.13568  0.54121  0.02250  1.0000
  H   H309      1.0  0.16385  0.56498  0.01007  1.0000
  H   H310      1.0  0.14326  0.50535  0.01489  1.0000
  O   O348      1.0  0.12526  0.54441  0.30591  1.0000
  H   H311      1.0  0.14159  0.97150  0.31113  1.0000
  H   H312      1.0  0.19897  0.55021  0.36351  1.0000
  O   O349      1.0  0.13696  0.67839  0.03034  1.0000
  H   H313      1.0  0.19212  0.66049  0.97591  1.0000
  H   H314      1.0  0.10993  0.65790  0.01477  1.0000
  O   O350      1.0  0.13893  0.67586  0.30736  1.0000
  H   H315      1.0  0.33005  0.77462  0.42631  1.0000
  H   H316      1.0  0.16622  0.65972  0.32073  1.0000
  O   O351      1.0  0.14649  0.78967  0.02919  1.0000
  H   H317      1.0  0.18351  0.79958  0.02964  1.0000
  H   H318      1.0  0.14334  0.74846  0.02407  1.0000
  O   O352      1.0  0.24587  0.86839  0.46515  1.0000
  H   H319      1.0  0.24114  0.85018  0.48980  1.0000
  H   H320      1.0  0.24466  0.83672  0.44815  1.0000
  O   O353      1.0  0.13777  0.92552  0.02375  1.0000
  H   H321      1.0  0.11469  0.89842  0.00923  1.0000
  H   H322      1.0  0.17117  0.91547  0.01497  1.0000
  O   O354      1.0  0.13504  0.93212  0.30711  1.0000
  H   H323      1.0  0.16007  0.90683  0.32145  1.0000
  H   H324      1.0  0.26447  0.90616  0.31422  1.0000
  O   O355      1.0  0.37469  0.55558  0.02222  1.0000
  H   H325      1.0  0.40063  0.54178  0.00541  1.0000
  H   H326      1.0  0.31449  0.76407  0.94390  1.0000
  O   O356      1.0  0.38811  0.55606  0.30992  1.0000
  H   H327      1.0  0.38853  0.59974  0.31240  1.0000
  H   H328      1.0  0.42042  0.53880  0.31775  1.0000
  O   O357      1.0  0.36175  0.67089  0.02953  1.0000
  H   H329      1.0  0.36824  0.63236  0.02156  1.0000
  H   H330      1.0  0.32430  0.67573  0.03201  1.0000
  O   O358      1.0  0.30266  0.52634  0.40813  1.0000
  H   H331      1.0  0.30580  0.51679  0.38262  1.0000
  H   H332      1.0  0.27662  0.55496  0.41246  1.0000
  O   O359      1.0  0.38350  0.81411  0.02694  1.0000
  H   H333      1.0  0.00552  0.70727  0.93096  1.0000
  H   H334      1.0  0.38785  0.87798  0.02610  1.0000
  O   O360      1.0  0.38628  0.80582  0.31144  1.0000
  H   H335      1.0  0.36953  0.77902  0.32825  1.0000
  H   H336      1.0  0.38723  0.84406  0.32331  1.0000
  O   O361      1.0  0.38984  0.92088  0.02801  1.0000
  H   H337      1.0  0.35734  0.93682  0.01824  1.0000
  H   H338      1.0  0.40714  0.79438  0.01108  1.0000
  O   O362      1.0  0.38090  0.91711  0.31183  1.0000
  H   H339      1.0  0.40875  0.93559  0.32602  1.0000
  H   H340      1.0  0.34804  0.93640  0.31843  1.0000
  H   H341      1.0  0.29962  0.70598  0.83218  1.0000
  H   H342      1.0  0.28830  0.64491  0.82316  1.0000
  O   O363      1.0  0.27098  0.68016  0.83142  1.0000
  H   H343      1.0  0.48115  0.97840  0.58011  1.0000
  H   H344      1.0  0.44630  0.50717  0.55384  1.0000
  O   O364      1.0  0.48213  0.99697  0.55674  1.0000
  H   H345      1.0  0.47344  0.70500  0.51183  1.0000
  H   H346      1.0  0.47238  0.65038  0.48840  1.0000
  O   O365      1.0  0.49330  0.67401  0.50344  1.0000
  H   H347      1.0  0.15009  0.74953  0.31481  1.0000
  H   H348      1.0  0.19088  0.79944  0.32018  1.0000
  O   O366      1.0  0.15462  0.79133  0.32027  1.0000
  H   H349      1.0  0.44126  0.62328  0.91450  1.0000
  H   H350      1.0  0.42434  0.56462  0.93683  1.0000
  O   O367      1.0  0.41418  0.59517  0.91876  1.0000
  H   H351      1.0  0.04254  0.92517  0.86627  1.0000
  H   H352      1.0  0.10224  0.94021  0.85885  1.0000
  O   O368      1.0  0.07411  0.94143  0.87518  1.0000
  H   H353      1.0  0.34265  0.53283  0.01549  1.0000
  H   H354      1.0  0.36861  0.74118  0.93843  1.0000
  O   O369      1.0  0.33828  0.75310  0.92553  1.0000
  H   H355      1.0  0.38419  0.83401  0.91985  1.0000
  H   H356      1.0  0.35912  0.89230  0.92835  1.0000
  O   O370      1.0  0.39252  0.87469  0.92727  1.0000
  H   H357      1.0  0.40201  0.94434  0.44219  1.0000
  H   H358      1.0  0.35638  0.92677  0.46963  1.0000
  O   O371      1.0  0.38491  0.91307  0.45303  1.0000
  H   H359      1.0  0.08657  0.75343  0.86715  1.0000
  H   H360      1.0  0.07300  0.81763  0.86886  1.0000
  O   O372      1.0  0.09520  0.78802  0.87951  1.0000
  H   H361      1.0  0.23096  0.59443  0.90134  1.0000
  H   H362      1.0  0.24627  0.64950  0.87919  1.0000
  O   O373      1.0  0.23979  0.63625  0.90244  1.0000
  H   H363      1.0  0.05099  0.87665  0.97224  1.0000
  H   H364      1.0  0.10748  0.84328  0.97732  1.0000
  O   O374      1.0  0.08879  0.87923  0.97723  1.0000
  H   H365      1.0  0.35678  0.59868  0.80586  1.0000
  H   H366      1.0  0.32829  0.56546  0.83646  1.0000
  O   O375      1.0  0.32238  0.58701  0.81312  1.0000
  H   H367      1.0  0.13024  0.85061  0.44645  1.0000
  H   H368      1.0  0.17482  0.85584  0.47337  1.0000
  O   O376      1.0  0.13992  0.84176  0.47164  1.0000
  H   H369      1.0  0.03394  0.63590  0.01671  1.0000
  H   H370      1.0  0.05084  0.60108  0.98004  1.0000
  O   O377      1.0  0.05693  0.63860  0.99520  1.0000
  H   H371      1.0  0.25967  0.50833  0.58002  1.0000
  H   H372      1.0  0.30638  0.97335  0.60031  1.0000
  O   O378      1.0  0.28050  0.50407  0.60181  1.0000
  H   H373      1.0  0.14966  0.56591  0.32097  1.0000
  H   H374      1.0  0.22369  0.57414  0.32852  1.0000
  O   O379      1.0  0.19569  0.58104  0.34521  1.0000
  H   H375      1.0  0.15329  0.89897  0.75830  1.0000
  H   H376      1.0  0.18445  0.86712  0.78673  1.0000
  O   O380      1.0  0.15220  0.86380  0.77245  1.0000
  H   H377      1.0  0.33047  0.62639  0.96718  1.0000
  H   H378      1.0  0.29300  0.63038  0.93479  1.0000
  O   O381      1.0  0.30762  0.60434  0.95258  1.0000
  H   H379      1.0  0.10884  0.76954  0.50997  1.0000
  H   H380      1.0  0.15701  0.78298  0.52953  1.0000
  O   O382      1.0  0.12670  0.76077  0.53212  1.0000
  H   H381      1.0  0.14208  0.50290  0.39476  1.0000
  H   H382      1.0  0.19269  0.99198  0.41752  1.0000
  O   O383      1.0  0.17968  0.99719  0.39429  1.0000
  H   H383      1.0  0.47208  0.52211  0.97071  1.0000
  H   H384      1.0  0.43620  0.97286  0.97278  1.0000
  O   O384      1.0  0.43420  0.51368  0.97067  1.0000
  H   H385      1.0  0.37443  0.85325  0.51581  1.0000
  H   H386      1.0  0.32457  0.83822  0.54083  1.0000
  O   O385      1.0  0.34567  0.87002  0.52982  1.0000
  H   H387      1.0  0.26643  0.77863  0.00503  1.0000
  H   H388      1.0  0.23064  0.75227  0.97481  1.0000
  O   O386      1.0  0.25920  0.77955  0.97969  1.0000
  H   H389      1.0  0.19679  0.60810  0.53211  1.0000
  H   H390      1.0  0.19567  0.54146  0.52961  1.0000
  O   O387      1.0  0.20780  0.57619  0.51694  1.0000
  H   H391      1.0  0.11388  0.77515  0.65961  1.0000
  H   H392      1.0  0.15373  0.81704  0.65041  1.0000
  O   O388      1.0  0.11660  0.81468  0.65058  1.0000
  H   H393      1.0  0.27393  0.61650  0.46212  1.0000
  H   H394      1.0  0.22225  0.58465  0.46676  1.0000
  O   O389      1.0  0.24573  0.60162  0.44976  1.0000
  H   H395      1.0  0.48587  0.95458  0.52277  1.0000
  H   H396      1.0  0.48997  0.91419  0.48924  1.0000
  O   O390      1.0  0.00506  0.94517  0.50173  1.0000
  H   H397      1.0  0.44047  0.67544  0.30262  1.0000
  H   H398      1.0  0.38877  0.68731  0.32867  1.0000
  O   O391      1.0  0.40278  0.66486  0.30849  1.0000
  H   H399      1.0  0.17190  0.94632  0.54118  1.0000
  H   H400      1.0  0.17322  0.97962  0.57560  1.0000
  O   O392      1.0  0.19597  0.96813  0.55639  1.0000
  H   H401      1.0  0.04743  0.55684  0.47490  1.0000
  H   H402      1.0  0.01218  0.50624  0.47542  1.0000
  O   O393      1.0  0.01913  0.53752  0.45973  1.0000
  H   H403      1.0  0.07203  0.85464  0.77849  1.0000
  H   H404      1.0  0.02296  0.84364  0.80233  1.0000
  O   O394      1.0  0.03583  0.86450  0.78219  1.0000
  H   H405      1.0  0.10413  0.72562  0.42530  1.0000
  H   H406      1.0  0.12389  0.77359  0.40154  1.0000
  O   O395      1.0  0.12089  0.73148  0.40215  1.0000
  H   H407      1.0  0.36592  0.62483  0.46381  1.0000
  H   H408      1.0  0.33890  0.66351  0.48892  1.0000
  O   O396      1.0  0.33959  0.65362  0.46395  1.0000
  H   H409      1.0  0.00268  0.81795  0.75369  1.0000
  H   H410      1.0  0.48528  0.78285  0.71964  1.0000
  O   O397      1.0  0.48243  0.78491  0.74499  1.0000
  H   H411      1.0  0.01776  0.78523  0.02391  1.0000
  H   H412      1.0  0.02908  0.67375  0.90048  1.0000
  O   O398      1.0  0.49670  0.68256  0.91083  1.0000
  H   H413      1.0  0.41652  0.78752  0.75173  1.0000
  H   H414      1.0  0.36477  0.75492  0.74023  1.0000
  O   O399      1.0  0.37803  0.78740  0.75604  1.0000
  H   H415      1.0  0.01463  0.60458  0.77432  1.0000
  H   H416      1.0  0.00805  0.53372  0.76843  1.0000
  O   O400      1.0  0.03039  0.56963  0.76785  1.0000
  H   H417      1.0  0.03744  0.61876  0.35107  1.0000
  H   H418      1.0  0.01798  0.56515  0.33470  1.0000
  O   O401      1.0  0.02132  0.58232  0.35798  1.0000
  H   H419      1.0  0.44841  0.67984  0.62924  1.0000
  H   H420      1.0  0.00116  0.66780  0.61452  1.0000
  O   O402      1.0  0.48452  0.68615  0.63295  1.0000
  H   H421      1.0  0.48259  0.55712  0.86084  1.0000
  H   H422      1.0  0.42826  0.56995  0.87518  1.0000
  O   O403      1.0  0.44644  0.55947  0.85214  1.0000
  H   H423      1.0  0.48957  0.85345  0.85239  1.0000
  H   H424      1.0  0.49089  0.78829  0.84703  1.0000
  O   O404      1.0  0.01016  0.82485  0.84205  1.0000
  H   H425      1.0  0.49976  0.58685  0.56073  1.0000
  H   H426      1.0  0.01311  0.64411  0.54415  1.0000
  O   O405      1.0  0.01672  0.62252  0.56639  1.0000
  H   H427      1.0  0.46552  0.81785  0.45175  1.0000
  H   H428      1.0  0.42679  0.86630  0.46659  1.0000
  O   O406      1.0  0.45882  0.84191  0.47167  1.0000
  H   H429      1.0  0.06092  0.75104  0.96854  1.0000
  H   H430      1.0  0.03207  0.70557  0.98711  1.0000
  O   O407      1.0  0.02335  0.73786  0.97144  1.0000
  H   H431      1.0  0.05542  0.56564  0.72466  1.0000
  H   H432      1.0  0.05694  0.53901  0.68562  1.0000
  O   O408      1.0  0.07504  0.56413  0.70072  1.0000
  H   H433      1.0  0.28556  0.82729  0.33394  1.0000
  H   H434      1.0  0.31630  0.86285  0.35964  1.0000
  O   O409      1.0  0.28211  0.85980  0.34803  1.0000
  H   H435      1.0  0.41742  0.54122  0.42197  1.0000
  H   H436      1.0  0.36627  0.50918  0.41659  1.0000
  O   O410      1.0  0.40492  0.50368  0.41801  1.0000
  H   H437      1.0  0.05289  0.94243  0.37745  1.0000
  H   H438      1.0  0.04692  0.92113  0.33579  1.0000
  O   O411      1.0  0.03810  0.91512  0.36010  1.0000
  H   H439      1.0  0.28521  0.50418  0.32449  1.0000
  H   H440      1.0  0.33964  0.51268  0.33772  1.0000
  O   O412      1.0  0.30908  0.98699  0.34061  1.0000
  H   H441      1.0  0.41252  0.71113  0.99569  1.0000
  H   H442      1.0  0.45555  0.74297  0.97397  1.0000
  O   O413      1.0  0.41793  0.74092  0.97851  1.0000
  H   H443      1.0  0.17769  0.96638  0.64573  1.0000
  H   H444      1.0  0.21546  0.97989  0.68001  1.0000
  O   O414      1.0  0.19369  0.95284  0.66794  1.0000
  H   H445      1.0  0.12534  0.94695  0.96050  1.0000
  H   H446      1.0  0.09692  0.96216  0.92636  1.0000
  O   O415      1.0  0.11632  0.97790  0.94521  1.0000
  H   H447      1.0  0.32353  0.77816  0.59847  1.0000
  H   H448      1.0  0.31269  0.75099  0.56141  1.0000
  O   O416      1.0  0.30464  0.78202  0.57718  1.0000
  H   H449      1.0  0.08612  0.86094  0.37888  1.0000
  H   H450      1.0  0.14400  0.85579  0.38524  1.0000
  O   O417      1.0  0.11055  0.84878  0.39716  1.0000
  H   H451      1.0  0.39154  0.91863  0.73128  1.0000
  H   H452      1.0  0.40940  0.98019  0.72345  1.0000
  O   O418      1.0  0.39924  0.95666  0.74289  1.0000
  H   H453      1.0  0.30110  0.96214  0.96143  1.0000
  H   H454      1.0  0.28362  0.94937  0.99805  1.0000
  O   O419      1.0  0.31341  0.96505  0.98525  1.0000
  H   H455      1.0  0.22543  0.84628  0.96991  1.0000
  H   H456      1.0  0.21579  0.90254  0.95145  1.0000
  O   O420      1.0  0.20065  0.87838  0.96804  1.0000
  H   H457      1.0  0.11661  0.99776  0.71405  1.0000
  H   H458      1.0  0.14869  0.94481  0.70186  1.0000
  O   O421      1.0  0.12626  0.95984  0.72108  1.0000
  H   H459      1.0  0.14324  0.70409  0.81288  1.0000
  H   H460      1.0  0.12468  0.63855  0.80776  1.0000
  O   O422      1.0  0.11327  0.67491  0.81779  1.0000
  H   H461      1.0  0.22000  0.71111  0.81511  1.0000
  H   H462      1.0  0.19630  0.76916  0.82237  1.0000
  O   O423      1.0  0.19178  0.73575  0.80609  1.0000
  H   H463      1.0  0.03735  0.70796  0.47208  1.0000
  H   H464      1.0  0.02436  0.74076  0.44302  1.0000
  O   O424      1.0  0.05508  0.73330  0.45726  1.0000
  H   H465      1.0  0.12098  0.89819  0.49614  1.0000
  H   H466      1.0  0.07315  0.93639  0.50883  1.0000
  O   O425      1.0  0.11086  0.93107  0.51159  1.0000
  H   H467      1.0  0.00476  0.82587  0.66793  1.0000
  H   H468      1.0  0.48593  0.76299  0.66041  1.0000
  O   O426      1.0  0.47867  0.79795  0.67386  1.0000
  H   H469      1.0  0.24906  0.76272  0.40743  1.0000
  H   H470      1.0  0.27184  0.81423  0.38749  1.0000
  O   O427      1.0  0.26358  0.80160  0.41130  1.0000
  H   H471      1.0  0.44828  0.62201  0.43352  1.0000
  H   H472      1.0  0.46702  0.57870  0.46374  1.0000
  O   O428      1.0  0.43597  0.60324  0.45536  1.0000
  H   H473      1.0  0.41612  0.99671  0.83746  1.0000
  H   H474      1.0  0.42909  0.95968  0.80717  1.0000
  O   O429      1.0  0.40510  0.95957  0.82606  1.0000
  H   H475      1.0  0.45973  0.96363  0.75962  1.0000
  H   H476      1.0  0.00551  0.93446  0.77737  1.0000
  O   O430      1.0  0.48727  0.97170  0.77552  1.0000
  H   H477      1.0  0.46323  0.62317  0.37660  1.0000
  H   H478      1.0  0.46434  0.68822  0.38121  1.0000
  O   O431      1.0  0.44358  0.65592  0.38778  1.0000
  H   H479      1.0  0.22248  0.56262  0.72519  1.0000
  H   H480      1.0  0.16889  0.59599  0.71175  1.0000
  O   O432      1.0  0.19503  0.59040  0.73201  1.0000
  H   H481      1.0  0.48982  0.79401  0.58688  1.0000
  H   H482      1.0  0.43339  0.79421  0.60101  1.0000
  O   O433      1.0  0.45567  0.81024  0.58337  1.0000
  H   H483      1.0  0.36486  0.62186  0.61733  1.0000
  H   H484      1.0  0.39958  0.61303  0.58408  1.0000
  O   O434      1.0  0.39223  0.63889  0.60207  1.0000
  H   H485      1.0  0.02049  0.96331  0.67772  1.0000
  H   H486      1.0  0.01353  0.98567  0.64202  1.0000
  O   O435      1.0  0.01305  0.50023  0.66586  1.0000
  H   H487      1.0  0.30692  0.86403  0.87222  1.0000
  H   H488      1.0  0.30638  0.82130  0.90630  1.0000
  O   O436      1.0  0.28540  0.84748  0.89291  1.0000
  H   H489      1.0  0.22789  0.71531  0.73622  1.0000
  H   H490      1.0  0.23292  0.65011  0.73475  1.0000
  O   O437      1.0  0.25472  0.68285  0.72886  1.0000
  H   H491      1.0  0.24566  0.60314  0.97573  1.0000
  H   H492      1.0  0.23846  0.56913  0.01053  1.0000
  O   O438      1.0  0.22134  0.58328  0.99042  1.0000
  H   H493      1.0  0.08111  0.70322  0.36588  1.0000
  H   H494      1.0  0.09021  0.68452  0.32978  1.0000
  O   O439      1.0  0.06020  0.68962  0.34654  1.0000
  H   H495      1.0  0.27956  0.64972  0.33413  1.0000
  H   H496      1.0  0.25910  0.65492  0.37163  1.0000
  O   O440      1.0  0.29012  0.64197  0.35828  1.0000
  H   H497      1.0  0.18466  0.95146  0.82112  1.0000
  H   H498      1.0  0.14500  0.50043  0.81982  1.0000
  O   O441      1.0  0.15925  0.97198  0.83552  1.0000
  H   H499      1.0  0.36949  0.52495  0.58383  1.0000
  H   H500      1.0  0.35118  0.54429  0.54634  1.0000
  O   O442      1.0  0.38256  0.54406  0.56266  1.0000
  H   H501      1.0  0.30589  0.51857  0.50009  1.0000
  H   H502      1.0  0.27938  0.57031  0.51838  1.0000
  O   O443      1.0  0.31393  0.55177  0.51529  1.0000
  H   H503      1.0  0.42970  0.93162  0.60531  1.0000
  H   H504      1.0  0.48626  0.90878  0.60406  1.0000
  O   O444      1.0  0.46497  0.93637  0.61531  1.0000
  H   H505      1.0  0.13055  0.57184  0.49398  1.0000
  H   H506      1.0  0.09078  0.61599  0.51140  1.0000
  O   O445      1.0  0.09471  0.58636  0.49461  1.0000
  H   H507      1.0  0.34759  0.55605  0.90039  1.0000
  H   H508      1.0  0.30711  0.50567  0.88733  1.0000
  O   O446      1.0  0.32952  0.53655  0.88062  1.0000
  H   H509      1.0  0.27214  0.88944  0.81324  1.0000
  H   H510      1.0  0.26304  0.94100  0.78909  1.0000
  O   O447      1.0  0.24458  0.91755  0.80475  1.0000
  H   H511      1.0  0.35460  0.80379  0.65053  1.0000
  H   H512      1.0  0.36497  0.74024  0.66406  1.0000
  O   O448      1.0  0.35832  0.76389  0.64279  1.0000
  H   H513      1.0  0.08560  0.80026  0.61508  1.0000
  H   H514      1.0  0.08922  0.78575  0.57472  1.0000
  O   O449      1.0  0.06728  0.79641  0.59310  1.0000
  H   H515      1.0  0.14672  0.74717  0.95718  1.0000
  H   H516      1.0  0.10865  0.77807  0.92885  1.0000
  O   O450      1.0  0.11516  0.76822  0.95275  1.0000
  H   H517      1.0  0.05129  0.52096  0.87867  1.0000
  H   H518      1.0  0.06357  0.58790  0.88475  1.0000
  O   O451      1.0  0.03370  0.55706  0.88491  1.0000
  H   H519      1.0  0.24711  0.96501  0.91111  1.0000
  H   H520      1.0  0.28882  0.91006  0.90914  1.0000
  O   O452      1.0  0.28134  0.94830  0.92045  1.0000
  H   H521      1.0  0.06505  0.51970  0.42084  1.0000
  H   H522      1.0  0.06615  0.53311  0.37992  1.0000
  O   O453      1.0  0.08004  0.50804  0.39761  1.0000
  H   H523      1.0  0.21759  0.73736  0.63100  1.0000
  H   H524      1.0  0.24087  0.76004  0.59674  1.0000
  O   O454      1.0  0.21164  0.73868  0.60620  1.0000
  H   H525      1.0  0.45665  0.63279  0.71582  1.0000
  H   H526      1.0  0.43039  0.61321  0.74976  1.0000
  O   O455      1.0  0.42655  0.61332  0.72539  1.0000
  H   H527      1.0  0.42008  0.65637  0.80490  1.0000
  H   H528      1.0  0.43450  0.59786  0.81820  1.0000
  O   O456      1.0  0.42279  0.61856  0.79533  1.0000
  H   H529      1.0  0.44122  0.90323  0.89537  1.0000
  H   H530      1.0  0.43159  0.91596  0.85608  1.0000
  O   O457      1.0  0.46005  0.90465  0.87208  1.0000
  H   H531      1.0  0.16306  0.81294  0.85661  1.0000
  H   H532      1.0  0.22312  0.82010  0.86514  1.0000
  O   O458      1.0  0.19663  0.81949  0.84667  1.0000
  H   H533      1.0  0.05791  0.68860  0.78971  1.0000
  H   H534      1.0  0.01052  0.72199  0.76831  1.0000
  O   O459      1.0  0.01904  0.69057  0.78442  1.0000
  H   H535      1.0  0.39472  0.75851  0.82674  1.0000
  H   H536      1.0  0.35275  0.77362  0.79549  1.0000
  O   O460      1.0  0.35904  0.77205  0.82202  1.0000
  H   H537      1.0  0.40390  0.87007  0.38403  1.0000
  H   H538      1.0  0.36575  0.87396  0.41334  1.0000
  O   O461      1.0  0.36782  0.85854  0.38879  1.0000
  H   H539      1.0  0.40220  0.84654  0.68939  1.0000
  H   H540      1.0  0.37133  0.82818  0.72095  1.0000
  O   O462      1.0  0.37265  0.85760  0.70131  1.0000
  H   H541      1.0  0.27394  0.50186  0.72340  1.0000
  H   H542      1.0  0.28455  0.53304  0.68548  1.0000
  O   O463      1.0  0.25702  0.51965  0.70159  1.0000
  H   H543      1.0  0.07738  0.91340  0.70194  1.0000
  H   H544      1.0  0.07961  0.86375  0.67592  1.0000
  O   O464      1.0  0.05595  0.88963  0.68524  1.0000
  H   H545      1.0  0.48484  0.96198  0.35661  1.0000
  H   H546      1.0  0.43341  0.98229  0.37691  1.0000
  O   O465      1.0  0.45201  0.98174  0.35327  1.0000
  H   H547      1.0  0.01050  0.66336  0.67060  1.0000
  H   H548      1.0  0.03414  0.62222  0.69691  1.0000
  O   O466      1.0  0.01426  0.65783  0.69613  1.0000
  H   H549      1.0  0.31107  0.54514  0.63272  1.0000
  H   H550      1.0  0.35235  0.55581  0.66335  1.0000
  O   O467      1.0  0.32597  0.57509  0.64838  1.0000
  H   H551      1.0  0.19280  0.92761  0.37094  1.0000
  H   H552      1.0  0.22974  0.88254  0.35768  1.0000
  O   O468      1.0  0.19099  0.89536  0.35733  1.0000
  H   H553      1.0  0.32032  0.68779  0.72154  1.0000
  H   H554      1.0  0.38020  0.66726  0.71833  1.0000
  O   O469      1.0  0.35560  0.69938  0.71399  1.0000
  H   H555      1.0  0.42457  0.75686  0.42129  1.0000
  H   H556      1.0  0.46153  0.79108  0.39568  1.0000
  O   O470      1.0  0.46147  0.77003  0.41839  1.0000
  H   H557      1.0  0.27498  0.85321  0.64306  1.0000
  H   H558      1.0  0.32226  0.87593  0.66692  1.0000
  O   O471      1.0  0.30447  0.87841  0.64493  1.0000
  H   H559      1.0  0.48893  0.86881  0.36663  1.0000
  H   H560      1.0  0.47545  0.81289  0.34243  1.0000
  O   O472      1.0  0.46389  0.83673  0.36439  1.0000
  H   H561      1.0  0.18713  0.69119  0.58059  1.0000
  H   H562      1.0  0.14637  0.68822  0.54931  1.0000
  O   O473      1.0  0.17026  0.66301  0.56266  1.0000
  H   H563      1.0  0.35343  0.90703  0.82772  1.0000
  H   H564      1.0  0.34736  0.84149  0.83197  1.0000
  O   O474      1.0  0.32850  0.87735  0.83522  1.0000
  H   H565      1.0  0.47635  0.69459  0.85742  1.0000
  H   H566      1.0  0.47873  0.70453  0.81661  1.0000
  O   O475      1.0  0.45980  0.71465  0.83781  1.0000
  H   H567      1.0  0.13259  0.67716  0.68246  1.0000
  H   H568      1.0  0.07858  0.70022  0.69781  1.0000
  O   O476      1.0  0.11582  0.71012  0.69248  1.0000
  H   H569      1.0  0.33242  0.69878  0.36039  1.0000
  H   H570      1.0  0.36807  0.74007  0.38161  1.0000
  O   O477      1.0  0.35891  0.72735  0.35650  1.0000
  H   H571      1.0  0.15416  0.57071  0.77580  1.0000
  H   H572      1.0  0.09623  0.56078  0.78031  1.0000
  O   O478      1.0  0.12896  0.56195  0.79443  1.0000
  H   H573      1.0  0.07949  0.59922  0.58715  1.0000
  H   H574      1.0  0.13469  0.62448  0.58863  1.0000
  O   O479      1.0  0.11190  0.59633  0.59926  1.0000
  H   H575      1.0  0.16285  0.75183  0.71437  1.0000
  H   H576      1.0  0.17639  0.79064  0.74532  1.0000
  O   O480      1.0  0.19249  0.77296  0.72483  1.0000
  H   H577      1.0  0.18503  0.71002  0.39731  1.0000
  H   H578      1.0  0.21617  0.67167  0.42369  1.0000
  O   O481      1.0  0.22070  0.69801  0.40317  1.0000
  H   H579      1.0  0.20324  0.67230  0.93404  1.0000
  H   H580      1.0  0.23387  0.67660  0.03219  1.0000
  O   O482      1.0  0.18904  0.68759  0.95633  1.0000
  H   H581      1.0  0.45630  0.86542  0.97023  1.0000
  H   H582      1.0  0.48386  0.88816  0.00345  1.0000
  O   O483      1.0  0.48715  0.88274  0.97905  1.0000
  H   H583      1.0  0.18628  0.63443  0.66110  1.0000
  H   H584      1.0  0.12799  0.61185  0.64916  1.0000
  O   O484      1.0  0.15035  0.62022  0.66933  1.0000
  H   H585      1.0  0.30686  0.53056  0.77675  1.0000
  H   H586      1.0  0.33474  0.98449  0.75264  1.0000
  O   O485      1.0  0.30054  0.50061  0.75890  1.0000
  H   H587      1.0  0.35245  0.91256  0.56809  1.0000
  H   H588      1.0  0.34282  0.89346  0.60879  1.0000
  O   O486      1.0  0.35956  0.92132  0.59223  1.0000
  H   H589      1.0  0.02273  0.68603  0.31005  1.0000
  H   H590      1.0  0.35680  0.71920  0.44015  1.0000
  O   O487      1.0  0.36301  0.75156  0.42609  1.0000
  H   H591      1.0  0.21002  0.86466  0.62018  1.0000
  H   H592      1.0  0.20958  0.90844  0.59293  1.0000
  O   O488      1.0  0.20787  0.86760  0.59508  1.0000
  H   H593      1.0  0.10344  0.66532  0.86379  1.0000
  H   H594      1.0  0.12236  0.66224  0.90136  1.0000
  O   O489      1.0  0.09328  0.65176  0.88756  1.0000
  H   H595      1.0  0.43980  0.79709  0.50000  1.0000
  H   H596      1.0  0.43500  0.78214  0.54167  1.0000
  O   O490      1.0  0.42883  0.76821  0.51783  1.0000
  O   O491      1.0  0.30264  0.96535  0.46901  1.0000
  H   H597      1.0  0.29716  0.98401  0.44607  1.0000
  H   H598      1.0  0.27796  0.93481  0.46958  1.0000
  O   O492      1.0  0.21592  0.82926  0.66552  1.0000
  H   H599      1.0  0.21897  0.80653  0.68783  1.0000
  H   H600      1.0  0.20637  0.86467  0.67519  1.0000
  O   O493      1.0  0.33955  0.70280  0.53212  1.0000
  H   H601      1.0  0.35092  0.67645  0.54922  1.0000
  H   H602      1.0  0.37138  0.71850  0.52307  1.0000
  O   O494      1.0  0.07762  0.91617  0.58283  1.0000
  H   H603      1.0  0.07866  0.87422  0.58496  1.0000
  H   H604      1.0  0.09108  0.91864  0.55853  1.0000
  O   O495      1.0  0.24489  0.67327  0.66256  1.0000
  H   H605      1.0  0.25101  0.68525  0.68711  1.0000
  H   H606      1.0  0.26853  0.64229  0.65417  1.0000
  O   O496      1.0  0.20438  0.51922  0.89851  1.0000
  H   H607      1.0  0.19539  0.50367  0.87402  1.0000
  H   H608      1.0  0.17170  0.52495  0.91217  1.0000
  O   O497      1.0  0.14359  0.99462  0.61174  1.0000
  H   H609      1.0  0.11654  0.96747  0.60649  1.0000
  H   H610      1.0  0.13279  0.53536  0.60932  1.0000
  O   O498      1.0  0.03881  0.54828  0.95651  1.0000
  H   H611      1.0  0.03635  0.55690  0.93133  1.0000
  H   H612      1.0  0.07070  0.52485  0.95753  1.0000
  O   O499      1.0  0.40763  0.52528  0.68421  1.0000
  H   H613      1.0  0.41401  0.55841  0.69979  1.0000
  H   H614      1.0  0.44021  0.52349  0.67057  1.0000
  O   O500      1.0  0.22034  0.82960  0.52650  1.0000
  H   H615      1.0  0.24315  0.80331  0.53930  1.0000
  H   H616      1.0  0.21081  0.85249  0.54692  1.0000
  O   O501      1.0  0.76100  0.04633  0.05047  1.0000
  Ti  Ti97      1.0  0.75704  0.10636  0.08905  1.0000
  Ti  Ti98      1.0  0.62900  0.04919  0.08414  1.0000
  O   O502      1.0  0.68346  0.10727  0.08736  1.0000
  O   O503      1.0  0.58575  0.10775  0.07838  1.0000
  O   O504      1.0  0.63362  0.04381  0.13336  1.0000
  O   O505      1.0  0.50960  0.04914  0.11540  1.0000
  Ti  Ti99      1.0  0.63175  0.11109  0.16723  1.0000
  Ti  Ti100     1.0  0.50485  0.04641  0.16359  1.0000
  O   O506      1.0  0.55605  0.10642  0.16808  1.0000
  O   O507      1.0  0.70633  0.10480  0.16825  1.0000
  O   O508      1.0  0.76272  0.04530  0.22323  1.0000
  O   O509      1.0  0.63201  0.04536  0.20160  1.0000
  Ti  Ti101     1.0  0.75147  0.11088  0.26028  1.0000
  Ti  Ti102     1.0  0.62375  0.04833  0.25750  1.0000
  O   O510      1.0  0.67799  0.11160  0.25315  1.0000
  O   O511      1.0  0.58190  0.11316  0.25127  1.0000
  O   O512      1.0  0.50489  0.04455  0.28647  1.0000
  O   O513      1.0  0.76230  0.17158  0.04901  1.0000
  Ti  Ti103     1.0  0.75463  0.23576  0.08947  1.0000
  Ti  Ti104     1.0  0.63621  0.17510  0.07857  1.0000
  O   O514      1.0  0.68463  0.23505  0.08556  1.0000
  O   O515      1.0  0.58461  0.22960  0.08252  1.0000
  O   O516      1.0  0.63431  0.17187  0.13680  1.0000
  O   O517      1.0  0.50696  0.17171  0.11857  1.0000
  Ti  Ti105     1.0  0.63316  0.23211  0.16504  1.0000
  Ti  Ti106     1.0  0.51294  0.17189  0.17042  1.0000
  O   O518      1.0  0.55720  0.23535  0.16673  1.0000
  O   O519      1.0  0.70878  0.23243  0.16709  1.0000
  O   O520      1.0  0.76171  0.17512  0.21992  1.0000
  O   O521      1.0  0.63166  0.16979  0.20037  1.0000
  Ti  Ti107     1.0  0.76098  0.23465  0.26292  1.0000
  Ti  Ti108     1.0  0.63300  0.17333  0.25375  1.0000
  O   O522      1.0  0.68316  0.23525  0.25174  1.0000
  O   O523      1.0  0.58563  0.23535  0.25435  1.0000
  O   O524      1.0  0.99960  0.17376  0.29151  1.0000
  O   O525      1.0  0.75543  0.29442  0.05256  1.0000
  Ti  Ti109     1.0  0.75963  0.35895  0.07788  1.0000
  Ti  Ti110     1.0  0.62978  0.29870  0.08538  1.0000
  O   O526      1.0  0.68145  0.35813  0.08095  1.0000
  O   O527      1.0  0.58628  0.35551  0.07676  1.0000
  O   O528      1.0  0.62786  0.29390  0.13477  1.0000
  O   O529      1.0  0.50789  0.30153  0.11900  1.0000
  Ti  Ti111     1.0  0.62921  0.36115  0.16944  1.0000
  Ti  Ti112     1.0  0.50390  0.29692  0.16731  1.0000
  O   O530      1.0  0.55607  0.36241  0.17058  1.0000
  O   O531      1.0  0.70577  0.36048  0.16982  1.0000
  O   O532      1.0  0.75954  0.29823  0.21945  1.0000
  O   O533      1.0  0.62927  0.29709  0.20112  1.0000
  Ti  Ti113     1.0  0.76299  0.35912  0.25178  1.0000
  Ti  Ti114     1.0  0.63833  0.29502  0.24947  1.0000
  O   O534      1.0  0.68149  0.35559  0.25644  1.0000
  O   O535      1.0  0.59063  0.35915  0.26159  1.0000
  O   O536      1.0  0.51358  0.29620  0.28961  1.0000
  O   O537      1.0  0.75752  0.41812  0.04871  1.0000
  Ti  Ti115     1.0  0.75994  0.48405  0.07686  1.0000
  Ti  Ti116     1.0  0.63883  0.42340  0.08520  1.0000
  O   O538      1.0  0.68344  0.48132  0.08120  1.0000
  O   O539      1.0  0.58621  0.48433  0.08213  1.0000
  O   O540      1.0  0.63405  0.41989  0.13463  1.0000
  O   O541      1.0  0.50862  0.41800  0.11519  1.0000
  Ti  Ti117     1.0  0.63481  0.48692  0.16991  1.0000
  Ti  Ti118     1.0  0.50972  0.42311  0.17348  1.0000
  O   O542      1.0  0.55983  0.48605  0.17129  1.0000
  O   O543      1.0  0.71168  0.48420  0.17149  1.0000
  O   O544      1.0  0.75251  0.42393  0.22325  1.0000
  O   O545      1.0  0.63394  0.42170  0.20379  1.0000
  Ti  Ti119     1.0  0.75371  0.48557  0.25713  1.0000
  Ti  Ti120     1.0  0.64040  0.42310  0.25491  1.0000
  O   O546      1.0  0.68277  0.48923  0.25304  1.0000
  O   O547      1.0  0.58425  0.48232  0.25238  1.0000
  O   O548      1.0  0.50724  0.41776  0.28954  1.0000
  O   O549      1.0  0.50949  0.04273  0.04469  1.0000
  Ti  Ti121     1.0  0.50653  0.09925  0.07642  1.0000
  Ti  Ti122     1.0  0.88474  0.04645  0.08480  1.0000
  O   O550      1.0  0.93111  0.10569  0.08301  1.0000
  O   O551      1.0  0.83401  0.10822  0.08407  1.0000
  O   O552      1.0  0.88235  0.04753  0.13681  1.0000
  O   O553      1.0  0.75880  0.04416  0.12050  1.0000
  Ti  Ti123     1.0  0.88702  0.10952  0.17088  1.0000
  Ti  Ti124     1.0  0.75558  0.04687  0.17079  1.0000
  O   O554      1.0  0.80883  0.11264  0.17162  1.0000
  O   O555      1.0  0.95528  0.11396  0.17006  1.0000
  O   O556      1.0  0.50186  0.04625  0.21831  1.0000
  O   O557      1.0  0.88374  0.04035  0.20366  1.0000
  Ti  Ti125     1.0  0.50475  0.09820  0.25191  1.0000
  Ti  Ti126     1.0  0.87805  0.04124  0.25408  1.0000
  O   O558      1.0  0.93188  0.11525  0.25084  1.0000
  O   O559      1.0  0.83338  0.11104  0.26093  1.0000
  O   O560      1.0  0.75232  0.05074  0.29177  1.0000
  O   O561      1.0  0.50774  0.17130  0.05084  1.0000
  Ti  Ti127     1.0  0.50391  0.22625  0.08475  1.0000
  Ti  Ti128     1.0  0.87945  0.17386  0.08712  1.0000
  O   O562      1.0  0.92736  0.23258  0.07966  1.0000
  O   O563      1.0  0.83510  0.23987  0.08233  1.0000
  O   O564      1.0  0.88300  0.17517  0.13677  1.0000
  O   O565      1.0  0.76160  0.16905  0.11376  1.0000
  Ti  Ti129     1.0  0.87598  0.24216  0.16843  1.0000
  Ti  Ti130     1.0  0.76068  0.17164  0.17386  1.0000
  O   O566      1.0  0.80606  0.23536  0.16745  1.0000
  O   O567      1.0  0.95723  0.23681  0.16638  1.0000
  O   O568      1.0  0.50966  0.17752  0.21977  1.0000
  O   O569      1.0  0.87778  0.17418  0.20336  1.0000
  Ti  Ti131     1.0  0.50542  0.23070  0.25620  1.0000
  Ti  Ti132     1.0  0.87787  0.16920  0.25189  1.0000
  O   O570      1.0  0.92927  0.23499  0.25172  1.0000
  O   O571      1.0  0.83297  0.23145  0.25882  1.0000
  O   O572      1.0  0.75428  0.17212  0.29337  1.0000
  O   O573      1.0  0.51043  0.29406  0.04831  1.0000
  Ti  Ti133     1.0  0.51087  0.35829  0.08249  1.0000
  Ti  Ti134     1.0  0.88117  0.29967  0.07422  1.0000
  O   O574      1.0  0.93444  0.35904  0.08129  1.0000
  O   O575      1.0  0.83626  0.36136  0.08183  1.0000
  O   O576      1.0  0.88026  0.30324  0.13603  1.0000
  O   O577      1.0  0.75670  0.30183  0.11803  1.0000
  Ti  Ti135     1.0  0.88489  0.35947  0.16791  1.0000
  Ti  Ti136     1.0  0.75000  0.29955  0.16828  1.0000
  O   O578      1.0  0.81056  0.36187  0.16981  1.0000
  O   O579      1.0  0.95865  0.35949  0.17038  1.0000
  O   O580      1.0  0.50653  0.29450  0.22072  1.0000
  O   O581      1.0  0.88172  0.29570  0.20393  1.0000
  Ti  Ti137     1.0  0.51862  0.35115  0.25773  1.0000
  Ti  Ti138     1.0  0.88482  0.29566  0.25479  1.0000
  O   O582      1.0  0.93193  0.35773  0.25562  1.0000
  O   O583      1.0  0.83458  0.36312  0.25564  1.0000
  O   O584      1.0  0.76348  0.29726  0.29001  1.0000
  O   O585      1.0  0.51065  0.41751  0.04864  1.0000
  Ti  Ti139     1.0  0.51142  0.47497  0.07840  1.0000
  Ti  Ti140     1.0  0.88961  0.42183  0.08530  1.0000
  O   O586      1.0  0.93417  0.48658  0.07999  1.0000
  O   O587      1.0  0.83594  0.48260  0.08096  1.0000
  O   O588      1.0  0.88479  0.42132  0.13381  1.0000
  O   O589      1.0  0.75903  0.42491  0.11619  1.0000
  Ti  Ti141     1.0  0.88338  0.48436  0.16828  1.0000
  Ti  Ti142     1.0  0.76336  0.42443  0.16362  1.0000
  O   O590      1.0  0.80863  0.48278  0.17164  1.0000
  O   O591      1.0  0.95932  0.48257  0.16409  1.0000
  O   O592      1.0  0.50538  0.41755  0.22149  1.0000
  O   O593      1.0  0.88603  0.42349  0.20286  1.0000
  Ti  Ti143     1.0  0.50751  0.47508  0.25989  1.0000
  Ti  Ti144     1.0  0.89026  0.41973  0.25164  1.0000
  O   O594      1.0  0.92959  0.48128  0.26212  1.0000
  O   O595      1.0  0.83408  0.48466  0.26093  1.0000
  O   O596      1.0  0.75663  0.41978  0.29076  1.0000
  O   O597      1.0  0.63568  0.04121  0.02250  1.0000
  H   H617      1.0  0.66385  0.06498  0.01007  1.0000
  H   H618      1.0  0.64326  0.00535  0.01489  1.0000
  O   O598      1.0  0.62526  0.04441  0.30591  1.0000
  H   H619      1.0  0.64159  0.47150  0.31113  1.0000
  H   H620      1.0  0.69897  0.05021  0.36351  1.0000
  O   O599      1.0  0.63696  0.17839  0.03034  1.0000
  H   H621      1.0  0.69212  0.16049  0.97591  1.0000
  H   H622      1.0  0.60993  0.15790  0.01477  1.0000
  O   O600      1.0  0.63893  0.17586  0.30736  1.0000
  H   H623      1.0  0.83005  0.27462  0.42631  1.0000
  H   H624      1.0  0.66622  0.15972  0.32073  1.0000
  O   O601      1.0  0.64649  0.28967  0.02919  1.0000
  H   H625      1.0  0.68351  0.29958  0.02964  1.0000
  H   H626      1.0  0.64334  0.24846  0.02407  1.0000
  O   O602      1.0  0.74587  0.36839  0.46515  1.0000
  H   H627      1.0  0.74114  0.35018  0.48980  1.0000
  H   H628      1.0  0.74466  0.33672  0.44815  1.0000
  O   O603      1.0  0.63777  0.42552  0.02375  1.0000
  H   H629      1.0  0.61469  0.39842  0.00923  1.0000
  H   H630      1.0  0.67117  0.41547  0.01497  1.0000
  O   O604      1.0  0.63504  0.43212  0.30711  1.0000
  H   H631      1.0  0.66007  0.40683  0.32145  1.0000
  H   H632      1.0  0.76447  0.40616  0.31422  1.0000
  O   O605      1.0  0.87469  0.05558  0.02222  1.0000
  H   H633      1.0  0.90063  0.04178  0.00541  1.0000
  H   H634      1.0  0.81449  0.26407  0.94390  1.0000
  O   O606      1.0  0.88811  0.05606  0.30992  1.0000
  H   H635      1.0  0.88853  0.09974  0.31240  1.0000
  H   H636      1.0  0.92042  0.03880  0.31775  1.0000
  O   O607      1.0  0.86175  0.17089  0.02953  1.0000
  H   H637      1.0  0.86824  0.13236  0.02156  1.0000
  H   H638      1.0  0.82430  0.17573  0.03201  1.0000
  O   O608      1.0  0.80266  0.02634  0.40813  1.0000
  H   H639      1.0  0.80580  0.01679  0.38262  1.0000
  H   H640      1.0  0.77662  0.05496  0.41246  1.0000
  O   O609      1.0  0.88350  0.31411  0.02694  1.0000
  H   H641      1.0  0.50552  0.20727  0.93096  1.0000
  H   H642      1.0  0.88785  0.37798  0.02610  1.0000
  O   O610      1.0  0.88628  0.30582  0.31144  1.0000
  H   H643      1.0  0.86953  0.27902  0.32825  1.0000
  H   H644      1.0  0.88723  0.34406  0.32331  1.0000
  O   O611      1.0  0.88984  0.42088  0.02801  1.0000
  H   H645      1.0  0.85734  0.43682  0.01824  1.0000
  H   H646      1.0  0.90714  0.29438  0.01108  1.0000
  O   O612      1.0  0.88090  0.41711  0.31183  1.0000
  H   H647      1.0  0.90875  0.43559  0.32602  1.0000
  H   H648      1.0  0.84804  0.43640  0.31843  1.0000
  H   H649      1.0  0.79962  0.20598  0.83218  1.0000
  H   H650      1.0  0.78830  0.14491  0.82316  1.0000
  O   O613      1.0  0.77098  0.18016  0.83142  1.0000
  H   H651      1.0  0.98115  0.47840  0.58011  1.0000
  H   H652      1.0  0.94630  0.00717  0.55384  1.0000
  O   O614      1.0  0.98213  0.49697  0.55674  1.0000
  H   H653      1.0  0.97344  0.20500  0.51183  1.0000
  H   H654      1.0  0.97238  0.15038  0.48840  1.0000
  O   O615      1.0  0.99330  0.17401  0.50344  1.0000
  H   H655      1.0  0.65009  0.24953  0.31481  1.0000
  H   H656      1.0  0.69088  0.29944  0.32018  1.0000
  O   O616      1.0  0.65462  0.29133  0.32027  1.0000
  H   H657      1.0  0.94126  0.12328  0.91450  1.0000
  H   H658      1.0  0.92434  0.06462  0.93683  1.0000
  O   O617      1.0  0.91418  0.09517  0.91876  1.0000
  H   H659      1.0  0.54254  0.42517  0.86627  1.0000
  H   H660      1.0  0.60224  0.44021  0.85885  1.0000
  O   O618      1.0  0.57411  0.44143  0.87518  1.0000
  H   H661      1.0  0.84265  0.03283  0.01549  1.0000
  H   H662      1.0  0.86861  0.24118  0.93843  1.0000
  O   O619      1.0  0.83828  0.25310  0.92553  1.0000
  H   H663      1.0  0.88419  0.33401  0.91985  1.0000
  H   H664      1.0  0.85912  0.39230  0.92835  1.0000
  O   O620      1.0  0.89252  0.37469  0.92727  1.0000
  H   H665      1.0  0.90201  0.44434  0.44219  1.0000
  H   H666      1.0  0.85638  0.42677  0.46963  1.0000
  O   O621      1.0  0.88491  0.41307  0.45303  1.0000
  H   H667      1.0  0.58657  0.25343  0.86715  1.0000
  H   H668      1.0  0.57300  0.31763  0.86886  1.0000
  O   O622      1.0  0.59520  0.28802  0.87951  1.0000
  H   H669      1.0  0.73096  0.09443  0.90134  1.0000
  H   H670      1.0  0.74627  0.14950  0.87919  1.0000
  O   O623      1.0  0.73979  0.13625  0.90244  1.0000
  H   H671      1.0  0.55099  0.37665  0.97224  1.0000
  H   H672      1.0  0.60748  0.34328  0.97732  1.0000
  O   O624      1.0  0.58879  0.37923  0.97723  1.0000
  H   H673      1.0  0.85678  0.09868  0.80586  1.0000
  H   H674      1.0  0.82829  0.06546  0.83646  1.0000
  O   O625      1.0  0.82238  0.08701  0.81312  1.0000
  H   H675      1.0  0.63024  0.35061  0.44645  1.0000
  H   H676      1.0  0.67482  0.35584  0.47337  1.0000
  O   O626      1.0  0.63992  0.34176  0.47164  1.0000
  H   H677      1.0  0.53394  0.13590  0.01671  1.0000
  H   H678      1.0  0.55084  0.10108  0.98004  1.0000
  O   O627      1.0  0.55693  0.13860  0.99520  1.0000
  H   H679      1.0  0.75967  0.00833  0.58002  1.0000
  H   H680      1.0  0.80638  0.47335  0.60031  1.0000
  O   O628      1.0  0.78050  0.00407  0.60181  1.0000
  H   H681      1.0  0.64966  0.06591  0.32097  1.0000
  H   H682      1.0  0.72369  0.07414  0.32852  1.0000
  O   O629      1.0  0.69569  0.08104  0.34521  1.0000
  H   H683      1.0  0.65329  0.39897  0.75830  1.0000
  H   H684      1.0  0.68445  0.36712  0.78673  1.0000
  O   O630      1.0  0.65220  0.36380  0.77245  1.0000
  H   H685      1.0  0.83047  0.12639  0.96718  1.0000
  H   H686      1.0  0.79300  0.13038  0.93479  1.0000
  O   O631      1.0  0.80762  0.10434  0.95258  1.0000
  H   H687      1.0  0.60884  0.26954  0.50997  1.0000
  H   H688      1.0  0.65701  0.28298  0.52953  1.0000
  O   O632      1.0  0.62670  0.26077  0.53212  1.0000
  H   H689      1.0  0.64208  0.00290  0.39476  1.0000
  H   H690      1.0  0.69269  0.49198  0.41752  1.0000
  O   O633      1.0  0.67968  0.49719  0.39429  1.0000
  H   H691      1.0  0.97208  0.02211  0.97071  1.0000
  H   H692      1.0  0.93620  0.47286  0.97278  1.0000
  O   O634      1.0  0.93420  0.01368  0.97067  1.0000
  H   H693      1.0  0.87443  0.35325  0.51581  1.0000
  H   H694      1.0  0.82457  0.33822  0.54083  1.0000
  O   O635      1.0  0.84567  0.37002  0.52982  1.0000
  H   H695      1.0  0.76643  0.27863  0.00503  1.0000
  H   H696      1.0  0.73064  0.25227  0.97481  1.0000
  O   O636      1.0  0.75920  0.27955  0.97969  1.0000
  H   H697      1.0  0.69679  0.10810  0.53211  1.0000
  H   H698      1.0  0.69567  0.04146  0.52961  1.0000
  O   O637      1.0  0.70780  0.07619  0.51694  1.0000
  H   H699      1.0  0.61388  0.27515  0.65961  1.0000
  H   H700      1.0  0.65373  0.31704  0.65041  1.0000
  O   O638      1.0  0.61660  0.31468  0.65058  1.0000
  H   H701      1.0  0.77393  0.11650  0.46212  1.0000
  H   H702      1.0  0.72225  0.08465  0.46676  1.0000
  O   O639      1.0  0.74573  0.10162  0.44976  1.0000
  H   H703      1.0  0.98587  0.45458  0.52277  1.0000
  H   H704      1.0  0.98997  0.41419  0.48924  1.0000
  O   O640      1.0  0.50506  0.44517  0.50173  1.0000
  H   H705      1.0  0.94047  0.17544  0.30262  1.0000
  H   H706      1.0  0.88877  0.18731  0.32867  1.0000
  O   O641      1.0  0.90278  0.16486  0.30849  1.0000
  H   H707      1.0  0.67190  0.44632  0.54118  1.0000
  H   H708      1.0  0.67322  0.47962  0.57560  1.0000
  O   O642      1.0  0.69597  0.46813  0.55639  1.0000
  H   H709      1.0  0.54743  0.05684  0.47490  1.0000
  H   H710      1.0  0.51218  0.00624  0.47542  1.0000
  O   O643      1.0  0.51913  0.03752  0.45973  1.0000
  H   H711      1.0  0.57203  0.35464  0.77849  1.0000
  H   H712      1.0  0.52296  0.34364  0.80233  1.0000
  O   O644      1.0  0.53583  0.36450  0.78219  1.0000
  H   H713      1.0  0.60413  0.22562  0.42530  1.0000
  H   H714      1.0  0.62389  0.27359  0.40154  1.0000
  O   O645      1.0  0.62089  0.23148  0.40215  1.0000
  H   H715      1.0  0.86592  0.12483  0.46381  1.0000
  H   H716      1.0  0.83890  0.16351  0.48892  1.0000
  O   O646      1.0  0.83959  0.15362  0.46395  1.0000
  H   H717      1.0  0.50268  0.31795  0.75369  1.0000
  H   H718      1.0  0.98528  0.28285  0.71964  1.0000
  O   O647      1.0  0.98243  0.28491  0.74499  1.0000
  H   H719      1.0  0.51776  0.28523  0.02391  1.0000
  H   H720      1.0  0.52908  0.17375  0.90048  1.0000
  O   O648      1.0  0.99670  0.18256  0.91083  1.0000
  H   H721      1.0  0.91652  0.28752  0.75173  1.0000
  H   H722      1.0  0.86477  0.25492  0.74023  1.0000
  O   O649      1.0  0.87803  0.28740  0.75604  1.0000
  H   H723      1.0  0.51463  0.10458  0.77432  1.0000
  H   H724      1.0  0.50805  0.03372  0.76843  1.0000
  O   O650      1.0  0.53039  0.06963  0.76785  1.0000
  H   H725      1.0  0.53744  0.11876  0.35107  1.0000
  H   H726      1.0  0.51798  0.06515  0.33470  1.0000
  O   O651      1.0  0.52132  0.08232  0.35798  1.0000
  H   H727      1.0  0.94841  0.17984  0.62924  1.0000
  H   H728      1.0  0.50116  0.16780  0.61452  1.0000
  O   O652      1.0  0.98452  0.18615  0.63295  1.0000
  H   H729      1.0  0.98259  0.05712  0.86084  1.0000
  H   H730      1.0  0.92826  0.06995  0.87518  1.0000
  O   O653      1.0  0.94644  0.05947  0.85214  1.0000
  H   H731      1.0  0.98957  0.35345  0.85239  1.0000
  H   H732      1.0  0.99089  0.28829  0.84703  1.0000
  O   O654      1.0  0.51016  0.32485  0.84205  1.0000
  H   H733      1.0  0.99976  0.08685  0.56073  1.0000
  H   H734      1.0  0.51311  0.14411  0.54415  1.0000
  O   O655      1.0  0.51672  0.12252  0.56639  1.0000
  H   H735      1.0  0.96552  0.31785  0.45175  1.0000
  H   H736      1.0  0.92679  0.36630  0.46659  1.0000
  O   O656      1.0  0.95882  0.34191  0.47167  1.0000
  H   H737      1.0  0.56092  0.25104  0.96854  1.0000
  H   H738      1.0  0.53207  0.20557  0.98711  1.0000
  O   O657      1.0  0.52335  0.23786  0.97144  1.0000
  H   H739      1.0  0.55542  0.06564  0.72466  1.0000
  H   H740      1.0  0.55694  0.03901  0.68562  1.0000
  O   O658      1.0  0.57504  0.06413  0.70072  1.0000
  H   H741      1.0  0.78556  0.32729  0.33394  1.0000
  H   H742      1.0  0.81630  0.36285  0.35964  1.0000
  O   O659      1.0  0.78211  0.35980  0.34803  1.0000
  H   H743      1.0  0.91742  0.04122  0.42197  1.0000
  H   H744      1.0  0.86627  0.00918  0.41659  1.0000
  O   O660      1.0  0.90492  0.00368  0.41801  1.0000
  H   H745      1.0  0.55289  0.44243  0.37745  1.0000
  H   H746      1.0  0.54692  0.42113  0.33579  1.0000
  O   O661      1.0  0.53810  0.41512  0.36010  1.0000
  H   H747      1.0  0.78521  0.00418  0.32449  1.0000
  H   H748      1.0  0.83964  0.01268  0.33772  1.0000
  O   O662      1.0  0.80908  0.48699  0.34061  1.0000
  H   H749      1.0  0.91252  0.21113  0.99569  1.0000
  H   H750      1.0  0.95555  0.24297  0.97397  1.0000
  O   O663      1.0  0.91793  0.24092  0.97851  1.0000
  H   H751      1.0  0.67769  0.46638  0.64573  1.0000
  H   H752      1.0  0.71546  0.47989  0.68001  1.0000
  O   O664      1.0  0.69369  0.45284  0.66794  1.0000
  H   H753      1.0  0.62534  0.44695  0.96050  1.0000
  H   H754      1.0  0.59692  0.46216  0.92636  1.0000
  O   O665      1.0  0.61632  0.47790  0.94521  1.0000
  H   H755      1.0  0.82353  0.27816  0.59847  1.0000
  H   H756      1.0  0.81269  0.25099  0.56141  1.0000
  O   O666      1.0  0.80464  0.28202  0.57718  1.0000
  H   H757      1.0  0.58612  0.36094  0.37888  1.0000
  H   H758      1.0  0.64400  0.35579  0.38524  1.0000
  O   O667      1.0  0.61055  0.34878  0.39716  1.0000
  H   H759      1.0  0.89154  0.41863  0.73128  1.0000
  H   H760      1.0  0.90940  0.48019  0.72345  1.0000
  O   O668      1.0  0.89924  0.45666  0.74289  1.0000
  H   H761      1.0  0.80110  0.46214  0.96143  1.0000
  H   H762      1.0  0.78362  0.44937  0.99805  1.0000
  O   O669      1.0  0.81341  0.46505  0.98525  1.0000
  H   H763      1.0  0.72543  0.34628  0.96991  1.0000
  H   H764      1.0  0.71579  0.40254  0.95145  1.0000
  O   O670      1.0  0.70065  0.37838  0.96804  1.0000
  H   H765      1.0  0.61661  0.49776  0.71405  1.0000
  H   H766      1.0  0.64869  0.44481  0.70186  1.0000
  O   O671      1.0  0.62626  0.45984  0.72108  1.0000
  H   H767      1.0  0.64324  0.20409  0.81288  1.0000
  H   H768      1.0  0.62468  0.13855  0.80776  1.0000
  O   O672      1.0  0.61327  0.17491  0.81779  1.0000
  H   H769      1.0  0.72000  0.21111  0.81511  1.0000
  H   H770      1.0  0.69630  0.26916  0.82237  1.0000
  O   O673      1.0  0.69178  0.23575  0.80609  1.0000
  H   H771      1.0  0.53735  0.20796  0.47208  1.0000
  H   H772      1.0  0.52436  0.24076  0.44302  1.0000
  O   O674      1.0  0.55508  0.23330  0.45726  1.0000
  H   H773      1.0  0.62098  0.39819  0.49614  1.0000
  H   H774      1.0  0.57315  0.43639  0.50883  1.0000
  O   O675      1.0  0.61086  0.43107  0.51159  1.0000
  H   H775      1.0  0.50476  0.32587  0.66793  1.0000
  H   H776      1.0  0.98593  0.26299  0.66041  1.0000
  O   O676      1.0  0.97867  0.29795  0.67386  1.0000
  H   H777      1.0  0.74906  0.26272  0.40743  1.0000
  H   H778      1.0  0.77184  0.31423  0.38749  1.0000
  O   O677      1.0  0.76358  0.30160  0.41130  1.0000
  H   H779      1.0  0.94828  0.12201  0.43352  1.0000
  H   H780      1.0  0.96702  0.07870  0.46374  1.0000
  O   O678      1.0  0.93597  0.10324  0.45536  1.0000
  H   H781      1.0  0.91612  0.49671  0.83746  1.0000
  H   H782      1.0  0.92909  0.45968  0.80717  1.0000
  O   O679      1.0  0.90510  0.45957  0.82606  1.0000
  H   H783      1.0  0.95973  0.46363  0.75962  1.0000
  H   H784      1.0  0.50551  0.43446  0.77737  1.0000
  O   O680      1.0  0.98727  0.47170  0.77552  1.0000
  H   H785      1.0  0.96323  0.12317  0.37660  1.0000
  H   H786      1.0  0.96434  0.18822  0.38121  1.0000
  O   O681      1.0  0.94358  0.15592  0.38778  1.0000
  H   H787      1.0  0.72248  0.06262  0.72519  1.0000
  H   H788      1.0  0.66889  0.09599  0.71175  1.0000
  O   O682      1.0  0.69503  0.09040  0.73201  1.0000
  H   H789      1.0  0.98982  0.29401  0.58688  1.0000
  H   H790      1.0  0.93339  0.29421  0.60101  1.0000
  O   O683      1.0  0.95567  0.31024  0.58337  1.0000
  H   H791      1.0  0.86486  0.12186  0.61733  1.0000
  H   H792      1.0  0.89958  0.11303  0.58408  1.0000
  O   O684      1.0  0.89223  0.13889  0.60207  1.0000
  H   H793      1.0  0.52049  0.46331  0.67772  1.0000
  H   H794      1.0  0.51353  0.48567  0.64202  1.0000
  O   O685      1.0  0.51305  0.00023  0.66586  1.0000
  H   H795      1.0  0.80692  0.36403  0.87222  1.0000
  H   H796      1.0  0.80638  0.32130  0.90630  1.0000
  O   O686      1.0  0.78540  0.34748  0.89291  1.0000
  H   H797      1.0  0.72789  0.21531  0.73622  1.0000
  H   H798      1.0  0.73292  0.15011  0.73475  1.0000
  O   O687      1.0  0.75472  0.18285  0.72886  1.0000
  H   H799      1.0  0.74566  0.10314  0.97573  1.0000
  H   H800      1.0  0.73846  0.06913  0.01053  1.0000
  O   O688      1.0  0.72134  0.08328  0.99042  1.0000
  H   H801      1.0  0.58111  0.20322  0.36588  1.0000
  H   H802      1.0  0.59021  0.18452  0.32978  1.0000
  O   O689      1.0  0.56020  0.18962  0.34654  1.0000
  H   H803      1.0  0.77956  0.14972  0.33413  1.0000
  H   H804      1.0  0.75910  0.15492  0.37163  1.0000
  O   O690      1.0  0.79012  0.14197  0.35828  1.0000
  H   H805      1.0  0.68466  0.45146  0.82112  1.0000
  H   H806      1.0  0.64500  0.00043  0.81982  1.0000
  O   O691      1.0  0.65925  0.47198  0.83552  1.0000
  H   H807      1.0  0.86949  0.02495  0.58383  1.0000
  H   H808      1.0  0.85118  0.04429  0.54634  1.0000
  O   O692      1.0  0.88256  0.04406  0.56266  1.0000
  H   H809      1.0  0.80589  0.01857  0.50009  1.0000
  H   H810      1.0  0.77938  0.07031  0.51838  1.0000
  O   O693      1.0  0.81393  0.05177  0.51529  1.0000
  H   H811      1.0  0.92970  0.43162  0.60531  1.0000
  H   H812      1.0  0.98626  0.40878  0.60406  1.0000
  O   O694      1.0  0.96497  0.43637  0.61531  1.0000
  H   H813      1.0  0.63055  0.07184  0.49398  1.0000
  H   H814      1.0  0.59078  0.11599  0.51140  1.0000
  O   O695      1.0  0.59471  0.08636  0.49461  1.0000
  H   H815      1.0  0.84759  0.05605  0.90039  1.0000
  H   H816      1.0  0.80711  0.00567  0.88733  1.0000
  O   O696      1.0  0.82952  0.03655  0.88062  1.0000
  H   H817      1.0  0.77214  0.38944  0.81324  1.0000
  H   H818      1.0  0.76304  0.44100  0.78909  1.0000
  O   O697      1.0  0.74458  0.41755  0.80475  1.0000
  H   H819      1.0  0.85460  0.30379  0.65053  1.0000
  H   H820      1.0  0.86497  0.24024  0.66406  1.0000
  O   O698      1.0  0.85832  0.26389  0.64279  1.0000
  H   H821      1.0  0.58560  0.30026  0.61508  1.0000
  H   H822      1.0  0.58922  0.28575  0.57472  1.0000
  O   O699      1.0  0.56728  0.29641  0.59310  1.0000
  H   H823      1.0  0.64672  0.24717  0.95718  1.0000
  H   H824      1.0  0.60865  0.27807  0.92885  1.0000
  O   O700      1.0  0.61516  0.26822  0.95275  1.0000
  H   H825      1.0  0.55129  0.02096  0.87867  1.0000
  H   H826      1.0  0.56357  0.08790  0.88475  1.0000
  O   O701      1.0  0.53370  0.05706  0.88491  1.0000
  H   H827      1.0  0.74711  0.46501  0.91111  1.0000
  H   H828      1.0  0.78882  0.41006  0.90914  1.0000
  O   O702      1.0  0.78134  0.44830  0.92045  1.0000
  H   H829      1.0  0.56505  0.01970  0.42084  1.0000
  H   H830      1.0  0.56615  0.03311  0.37992  1.0000
  O   O703      1.0  0.58004  0.00804  0.39761  1.0000
  H   H831      1.0  0.71759  0.23736  0.63100  1.0000
  H   H832      1.0  0.74087  0.26004  0.59674  1.0000
  O   O704      1.0  0.71164  0.23868  0.60620  1.0000
  H   H833      1.0  0.95665  0.13279  0.71582  1.0000
  H   H834      1.0  0.93039  0.11321  0.74976  1.0000
  O   O705      1.0  0.92655  0.11332  0.72539  1.0000
  H   H835      1.0  0.92008  0.15637  0.80490  1.0000
  H   H836      1.0  0.93450  0.09786  0.81820  1.0000
  O   O706      1.0  0.92279  0.11856  0.79533  1.0000
  H   H837      1.0  0.94122  0.40323  0.89537  1.0000
  H   H838      1.0  0.93159  0.41596  0.85608  1.0000
  O   O707      1.0  0.96005  0.40465  0.87208  1.0000
  H   H839      1.0  0.66306  0.31294  0.85661  1.0000
  H   H840      1.0  0.72312  0.32010  0.86514  1.0000
  O   O708      1.0  0.69663  0.31949  0.84667  1.0000
  H   H841      1.0  0.55791  0.18860  0.78971  1.0000
  H   H842      1.0  0.51052  0.22199  0.76831  1.0000
  O   O709      1.0  0.51904  0.19057  0.78442  1.0000
  H   H843      1.0  0.89472  0.25851  0.82674  1.0000
  H   H844      1.0  0.85275  0.27362  0.79549  1.0000
  O   O710      1.0  0.85904  0.27205  0.82202  1.0000
  H   H845      1.0  0.90390  0.37007  0.38403  1.0000
  H   H846      1.0  0.86575  0.37396  0.41334  1.0000
  O   O711      1.0  0.86782  0.35854  0.38879  1.0000
  H   H847      1.0  0.90220  0.34654  0.68939  1.0000
  H   H848      1.0  0.87133  0.32818  0.72095  1.0000
  O   O712      1.0  0.87265  0.35760  0.70131  1.0000
  H   H849      1.0  0.77394  0.00186  0.72340  1.0000
  H   H850      1.0  0.78455  0.03304  0.68548  1.0000
  O   O713      1.0  0.75702  0.01965  0.70159  1.0000
  H   H851      1.0  0.57738  0.41340  0.70194  1.0000
  H   H852      1.0  0.57961  0.36375  0.67592  1.0000
  O   O714      1.0  0.55595  0.38963  0.68524  1.0000
  H   H853      1.0  0.98484  0.46198  0.35661  1.0000
  H   H854      1.0  0.93341  0.48229  0.37691  1.0000
  O   O715      1.0  0.95201  0.48174  0.35327  1.0000
  H   H855      1.0  0.51050  0.16336  0.67060  1.0000
  H   H856      1.0  0.53414  0.12222  0.69691  1.0000
  O   O716      1.0  0.51426  0.15783  0.69613  1.0000
  H   H857      1.0  0.81107  0.04514  0.63272  1.0000
  H   H858      1.0  0.85235  0.05581  0.66335  1.0000
  O   O717      1.0  0.82597  0.07509  0.64838  1.0000
  H   H859      1.0  0.69280  0.42761  0.37094  1.0000
  H   H860      1.0  0.72974  0.38254  0.35768  1.0000
  O   O718      1.0  0.69099  0.39536  0.35733  1.0000
  H   H861      1.0  0.82032  0.18779  0.72154  1.0000
  H   H862      1.0  0.88020  0.16726  0.71833  1.0000
  O   O719      1.0  0.85560  0.19938  0.71399  1.0000
  H   H863      1.0  0.92457  0.25686  0.42129  1.0000
  H   H864      1.0  0.96153  0.29108  0.39568  1.0000
  O   O720      1.0  0.96147  0.27003  0.41839  1.0000
  H   H865      1.0  0.77498  0.35321  0.64306  1.0000
  H   H866      1.0  0.82226  0.37593  0.66692  1.0000
  O   O721      1.0  0.80447  0.37841  0.64493  1.0000
  H   H867      1.0  0.98893  0.36881  0.36663  1.0000
  H   H868      1.0  0.97545  0.31289  0.34243  1.0000
  O   O722      1.0  0.96389  0.33673  0.36439  1.0000
  H   H869      1.0  0.68713  0.19119  0.58059  1.0000
  H   H870      1.0  0.64637  0.18822  0.54931  1.0000
  O   O723      1.0  0.67026  0.16301  0.56266  1.0000
  H   H871      1.0  0.85343  0.40703  0.82772  1.0000
  H   H872      1.0  0.84736  0.34149  0.83197  1.0000
  O   O724      1.0  0.82850  0.37735  0.83522  1.0000
  H   H873      1.0  0.97635  0.19459  0.85742  1.0000
  H   H874      1.0  0.97873  0.20453  0.81661  1.0000
  O   O725      1.0  0.95980  0.21465  0.83781  1.0000
  H   H875      1.0  0.63259  0.17716  0.68246  1.0000
  H   H876      1.0  0.57858  0.20022  0.69781  1.0000
  O   O726      1.0  0.61582  0.21012  0.69248  1.0000
  H   H877      1.0  0.83242  0.19878  0.36039  1.0000
  H   H878      1.0  0.86807  0.24007  0.38161  1.0000
  O   O727      1.0  0.85891  0.22735  0.35650  1.0000
  H   H879      1.0  0.65416  0.07071  0.77580  1.0000
  H   H880      1.0  0.59623  0.06078  0.78031  1.0000
  O   O728      1.0  0.62896  0.06195  0.79443  1.0000
  H   H881      1.0  0.57949  0.09922  0.58715  1.0000
  H   H882      1.0  0.63469  0.12448  0.58863  1.0000
  O   O729      1.0  0.61190  0.09633  0.59926  1.0000
  H   H883      1.0  0.66285  0.25183  0.71437  1.0000
  H   H884      1.0  0.67639  0.29064  0.74532  1.0000
  O   O730      1.0  0.69249  0.27296  0.72483  1.0000
  H   H885      1.0  0.68503  0.21002  0.39731  1.0000
  H   H886      1.0  0.71617  0.17167  0.42369  1.0000
  O   O731      1.0  0.72070  0.19801  0.40317  1.0000
  H   H887      1.0  0.70324  0.17230  0.93404  1.0000
  H   H888      1.0  0.73387  0.17660  0.03219  1.0000
  O   O732      1.0  0.68904  0.18759  0.95633  1.0000
  H   H889      1.0  0.95630  0.36542  0.97023  1.0000
  H   H890      1.0  0.98386  0.38816  0.00345  1.0000
  O   O733      1.0  0.98715  0.38274  0.97905  1.0000
  H   H891      1.0  0.68628  0.13443  0.66110  1.0000
  H   H892      1.0  0.62799  0.11185  0.64916  1.0000
  O   O734      1.0  0.65035  0.12022  0.66933  1.0000
  H   H893      1.0  0.80686  0.03056  0.77675  1.0000
  H   H894      1.0  0.83474  0.48449  0.75264  1.0000
  O   O735      1.0  0.80054  0.00061  0.75890  1.0000
  H   H895      1.0  0.85245  0.41256  0.56809  1.0000
  H   H896      1.0  0.84282  0.39346  0.60879  1.0000
  O   O736      1.0  0.85956  0.42132  0.59223  1.0000
  H   H897      1.0  0.52273  0.18603  0.31005  1.0000
  H   H898      1.0  0.85680  0.21920  0.44015  1.0000
  O   O737      1.0  0.86301  0.25156  0.42609  1.0000
  H   H899      1.0  0.71002  0.36466  0.62018  1.0000
  H   H900      1.0  0.70958  0.40844  0.59293  1.0000
  O   O738      1.0  0.70787  0.36760  0.59508  1.0000
  H   H901      1.0  0.60344  0.16532  0.86379  1.0000
  H   H902      1.0  0.62236  0.16224  0.90136  1.0000
  O   O739      1.0  0.59328  0.15176  0.88756  1.0000
  H   H903      1.0  0.93980  0.29709  0.50000  1.0000
  H   H904      1.0  0.93500  0.28214  0.54167  1.0000
  O   O740      1.0  0.92883  0.26821  0.51783  1.0000
  O   O741      1.0  0.80264  0.46535  0.46901  1.0000
  H   H905      1.0  0.79716  0.48401  0.44607  1.0000
  H   H906      1.0  0.77796  0.43481  0.46958  1.0000
  O   O742      1.0  0.71592  0.32926  0.66552  1.0000
  H   H907      1.0  0.71897  0.30653  0.68783  1.0000
  H   H908      1.0  0.70637  0.36467  0.67519  1.0000
  O   O743      1.0  0.83955  0.20280  0.53212  1.0000
  H   H909      1.0  0.85092  0.17645  0.54922  1.0000
  H   H910      1.0  0.87138  0.21850  0.52307  1.0000
  O   O744      1.0  0.57762  0.41617  0.58283  1.0000
  H   H911      1.0  0.57866  0.37422  0.58496  1.0000
  H   H912      1.0  0.59108  0.41864  0.55853  1.0000
  O   O745      1.0  0.74489  0.17327  0.66256  1.0000
  H   H913      1.0  0.75101  0.18525  0.68711  1.0000
  H   H914      1.0  0.76853  0.14229  0.65417  1.0000
  O   O746      1.0  0.70438  0.01922  0.89851  1.0000
  H   H915      1.0  0.69539  0.00367  0.87402  1.0000
  H   H916      1.0  0.67170  0.02495  0.91217  1.0000
  O   O747      1.0  0.64359  0.49462  0.61174  1.0000
  H   H917      1.0  0.61654  0.46747  0.60649  1.0000
  H   H918      1.0  0.63279  0.03536  0.60932  1.0000
  O   O748      1.0  0.53881  0.04828  0.95651  1.0000
  H   H919      1.0  0.53635  0.05690  0.93133  1.0000
  H   H920      1.0  0.57070  0.02485  0.95753  1.0000
  O   O749      1.0  0.90763  0.02528  0.68421  1.0000
  H   H921      1.0  0.91401  0.05841  0.69979  1.0000
  H   H922      1.0  0.94021  0.02349  0.67057  1.0000
  O   O750      1.0  0.72034  0.32960  0.52650  1.0000
  H   H923      1.0  0.74315  0.30331  0.53930  1.0000
  H   H924      1.0  0.71081  0.35249  0.54692  1.0000
  O   O751      1.0  0.76100  0.54633  0.05047  1.0000
  Ti  Ti145     1.0  0.75704  0.60636  0.08905  1.0000
  Ti  Ti146     1.0  0.62900  0.54919  0.08414  1.0000
  O   O752      1.0  0.68346  0.60727  0.08736  1.0000
  O   O753      1.0  0.58575  0.60775  0.07838  1.0000
  O   O754      1.0  0.63362  0.54381  0.13336  1.0000
  O   O755      1.0  0.50960  0.54914  0.11540  1.0000
  Ti  Ti147     1.0  0.63175  0.61109  0.16723  1.0000
  Ti  Ti148     1.0  0.50485  0.54641  0.16359  1.0000
  O   O756      1.0  0.55605  0.60642  0.16808  1.0000
  O   O757      1.0  0.70633  0.60480  0.16825  1.0000
  O   O758      1.0  0.76272  0.54530  0.22323  1.0000
  O   O759      1.0  0.63201  0.54536  0.20160  1.0000
  Ti  Ti149     1.0  0.75147  0.61088  0.26028  1.0000
  Ti  Ti150     1.0  0.62375  0.54833  0.25750  1.0000
  O   O760      1.0  0.67799  0.61160  0.25315  1.0000
  O   O761      1.0  0.58190  0.61316  0.25127  1.0000
  O   O762      1.0  0.50489  0.54455  0.28647  1.0000
  O   O763      1.0  0.76230  0.67158  0.04901  1.0000
  Ti  Ti151     1.0  0.75463  0.73576  0.08947  1.0000
  Ti  Ti152     1.0  0.63621  0.67510  0.07857  1.0000
  O   O764      1.0  0.68463  0.73505  0.08556  1.0000
  O   O765      1.0  0.58461  0.72960  0.08252  1.0000
  O   O766      1.0  0.63431  0.67187  0.13680  1.0000
  O   O767      1.0  0.50696  0.67171  0.11857  1.0000
  Ti  Ti153     1.0  0.63316  0.73211  0.16504  1.0000
  Ti  Ti154     1.0  0.51294  0.67189  0.17042  1.0000
  O   O768      1.0  0.55720  0.73535  0.16673  1.0000
  O   O769      1.0  0.70878  0.73243  0.16709  1.0000
  O   O770      1.0  0.76171  0.67512  0.21992  1.0000
  O   O771      1.0  0.63166  0.66979  0.20037  1.0000
  Ti  Ti155     1.0  0.76098  0.73465  0.26292  1.0000
  Ti  Ti156     1.0  0.63300  0.67333  0.25375  1.0000
  O   O772      1.0  0.68316  0.73525  0.25174  1.0000
  O   O773      1.0  0.58563  0.73535  0.25435  1.0000
  O   O774      1.0  0.99960  0.67376  0.29151  1.0000
  O   O775      1.0  0.75543  0.79442  0.05256  1.0000
  Ti  Ti157     1.0  0.75963  0.85895  0.07788  1.0000
  Ti  Ti158     1.0  0.62978  0.79870  0.08538  1.0000
  O   O776      1.0  0.68145  0.85813  0.08095  1.0000
  O   O777      1.0  0.58628  0.85551  0.07676  1.0000
  O   O778      1.0  0.62786  0.79390  0.13477  1.0000
  O   O779      1.0  0.50789  0.80153  0.11900  1.0000
  Ti  Ti159     1.0  0.62921  0.86115  0.16944  1.0000
  Ti  Ti160     1.0  0.50390  0.79692  0.16731  1.0000
  O   O780      1.0  0.55607  0.86241  0.17058  1.0000
  O   O781      1.0  0.70577  0.86048  0.16982  1.0000
  O   O782      1.0  0.75954  0.79823  0.21945  1.0000
  O   O783      1.0  0.62927  0.79709  0.20112  1.0000
  Ti  Ti161     1.0  0.76299  0.85912  0.25178  1.0000
  Ti  Ti162     1.0  0.63833  0.79502  0.24947  1.0000
  O   O784      1.0  0.68149  0.85559  0.25644  1.0000
  O   O785      1.0  0.59063  0.85915  0.26159  1.0000
  O   O786      1.0  0.51358  0.79620  0.28961  1.0000
  O   O787      1.0  0.75752  0.91812  0.04871  1.0000
  Ti  Ti163     1.0  0.75994  0.98405  0.07686  1.0000
  Ti  Ti164     1.0  0.63883  0.92340  0.08520  1.0000
  O   O788      1.0  0.68344  0.98132  0.08120  1.0000
  O   O789      1.0  0.58621  0.98433  0.08213  1.0000
  O   O790      1.0  0.63405  0.91989  0.13463  1.0000
  O   O791      1.0  0.50862  0.91800  0.11519  1.0000
  Ti  Ti165     1.0  0.63481  0.98692  0.16991  1.0000
  Ti  Ti166     1.0  0.50972  0.92311  0.17348  1.0000
  O   O792      1.0  0.55983  0.98605  0.17129  1.0000
  O   O793      1.0  0.71168  0.98420  0.17149  1.0000
  O   O794      1.0  0.75251  0.92393  0.22325  1.0000
  O   O795      1.0  0.63394  0.92170  0.20379  1.0000
  Ti  Ti167     1.0  0.75371  0.98557  0.25713  1.0000
  Ti  Ti168     1.0  0.64040  0.92310  0.25491  1.0000
  O   O796      1.0  0.68277  0.98923  0.25304  1.0000
  O   O797      1.0  0.58425  0.98232  0.25238  1.0000
  O   O798      1.0  0.50724  0.91776  0.28954  1.0000
  O   O799      1.0  0.50949  0.54273  0.04469  1.0000
  Ti  Ti169     1.0  0.50653  0.59925  0.07642  1.0000
  Ti  Ti170     1.0  0.88474  0.54645  0.08480  1.0000
  O   O800      1.0  0.93111  0.60569  0.08301  1.0000
  O   O801      1.0  0.83401  0.60822  0.08407  1.0000
  O   O802      1.0  0.88235  0.54753  0.13681  1.0000
  O   O803      1.0  0.75880  0.54416  0.12050  1.0000
  Ti  Ti171     1.0  0.88702  0.60952  0.17088  1.0000
  Ti  Ti172     1.0  0.75558  0.54687  0.17079  1.0000
  O   O804      1.0  0.80883  0.61264  0.17162  1.0000
  O   O805      1.0  0.95528  0.61396  0.17006  1.0000
  O   O806      1.0  0.50186  0.54625  0.21831  1.0000
  O   O807      1.0  0.88374  0.54035  0.20366  1.0000
  Ti  Ti173     1.0  0.50475  0.59820  0.25191  1.0000
  Ti  Ti174     1.0  0.87805  0.54124  0.25408  1.0000
  O   O808      1.0  0.93188  0.61525  0.25084  1.0000
  O   O809      1.0  0.83338  0.61104  0.26093  1.0000
  O   O810      1.0  0.75232  0.55074  0.29177  1.0000
  O   O811      1.0  0.50774  0.67130  0.05084  1.0000
  Ti  Ti175     1.0  0.50391  0.72625  0.08475  1.0000
  Ti  Ti176     1.0  0.87945  0.67386  0.08712  1.0000
  O   O812      1.0  0.92736  0.73258  0.07966  1.0000
  O   O813      1.0  0.83510  0.73987  0.08233  1.0000
  O   O814      1.0  0.88300  0.67517  0.13677  1.0000
  O   O815      1.0  0.76160  0.66905  0.11376  1.0000
  Ti  Ti177     1.0  0.87598  0.74216  0.16843  1.0000
  Ti  Ti178     1.0  0.76068  0.67164  0.17386  1.0000
  O   O816      1.0  0.80606  0.73536  0.16745  1.0000
  O   O817      1.0  0.95723  0.73681  0.16638  1.0000
  O   O818      1.0  0.50966  0.67752  0.21977  1.0000
  O   O819      1.0  0.87778  0.67418  0.20336  1.0000
  Ti  Ti179     1.0  0.50542  0.73070  0.25620  1.0000
  Ti  Ti180     1.0  0.87787  0.66920  0.25189  1.0000
  O   O820      1.0  0.92927  0.73499  0.25172  1.0000
  O   O821      1.0  0.83297  0.73145  0.25882  1.0000
  O   O822      1.0  0.75428  0.67212  0.29337  1.0000
  O   O823      1.0  0.51043  0.79406  0.04831  1.0000
  Ti  Ti181     1.0  0.51087  0.85829  0.08249  1.0000
  Ti  Ti182     1.0  0.88117  0.79967  0.07422  1.0000
  O   O824      1.0  0.93444  0.85904  0.08129  1.0000
  O   O825      1.0  0.83626  0.86136  0.08183  1.0000
  O   O826      1.0  0.88026  0.80324  0.13603  1.0000
  O   O827      1.0  0.75670  0.80183  0.11803  1.0000
  Ti  Ti183     1.0  0.88489  0.85947  0.16791  1.0000
  Ti  Ti184     1.0  0.75000  0.79955  0.16828  1.0000
  O   O828      1.0  0.81056  0.86187  0.16981  1.0000
  O   O829      1.0  0.95865  0.85949  0.17038  1.0000
  O   O830      1.0  0.50653  0.79450  0.22072  1.0000
  O   O831      1.0  0.88172  0.79570  0.20393  1.0000
  Ti  Ti185     1.0  0.51862  0.85115  0.25773  1.0000
  Ti  Ti186     1.0  0.88482  0.79566  0.25479  1.0000
  O   O832      1.0  0.93193  0.85773  0.25562  1.0000
  O   O833      1.0  0.83458  0.86312  0.25564  1.0000
  O   O834      1.0  0.76348  0.79726  0.29001  1.0000
  O   O835      1.0  0.51065  0.91751  0.04864  1.0000
  Ti  Ti187     1.0  0.51142  0.97497  0.07840  1.0000
  Ti  Ti188     1.0  0.88961  0.92183  0.08530  1.0000
  O   O836      1.0  0.93417  0.98658  0.07999  1.0000
  O   O837      1.0  0.83594  0.98260  0.08096  1.0000
  O   O838      1.0  0.88479  0.92132  0.13381  1.0000
  O   O839      1.0  0.75903  0.92491  0.11619  1.0000
  Ti  Ti189     1.0  0.88338  0.98436  0.16828  1.0000
  Ti  Ti190     1.0  0.76336  0.92443  0.16362  1.0000
  O   O840      1.0  0.80863  0.98278  0.17164  1.0000
  O   O841      1.0  0.95932  0.98257  0.16409  1.0000
  O   O842      1.0  0.50538  0.91755  0.22149  1.0000
  O   O843      1.0  0.88603  0.92349  0.20286  1.0000
  Ti  Ti191     1.0  0.50751  0.97508  0.25989  1.0000
  Ti  Ti192     1.0  0.89026  0.91973  0.25164  1.0000
  O   O844      1.0  0.92959  0.98128  0.26212  1.0000
  O   O845      1.0  0.83408  0.98466  0.26093  1.0000
  O   O846      1.0  0.75663  0.91978  0.29076  1.0000
  O   O847      1.0  0.63568  0.54121  0.02250  1.0000
  H   H925      1.0  0.66385  0.56498  0.01007  1.0000
  H   H926      1.0  0.64326  0.50535  0.01489  1.0000
  O   O848      1.0  0.62526  0.54441  0.30591  1.0000
  H   H927      1.0  0.64159  0.97150  0.31113  1.0000
  H   H928      1.0  0.69897  0.55021  0.36351  1.0000
  O   O849      1.0  0.63696  0.67839  0.03034  1.0000
  H   H929      1.0  0.69212  0.66049  0.97591  1.0000
  H   H930      1.0  0.60993  0.65790  0.01477  1.0000
  O   O850      1.0  0.63893  0.67586  0.30736  1.0000
  H   H931      1.0  0.83005  0.77462  0.42631  1.0000
  H   H932      1.0  0.66622  0.65972  0.32073  1.0000
  O   O851      1.0  0.64649  0.78967  0.02919  1.0000
  H   H933      1.0  0.68351  0.79958  0.02964  1.0000
  H   H934      1.0  0.64334  0.74846  0.02407  1.0000
  O   O852      1.0  0.74587  0.86839  0.46515  1.0000
  H   H935      1.0  0.74114  0.85018  0.48980  1.0000
  H   H936      1.0  0.74466  0.83672  0.44815  1.0000
  O   O853      1.0  0.63777  0.92552  0.02375  1.0000
  H   H937      1.0  0.61469  0.89842  0.00923  1.0000
  H   H938      1.0  0.67117  0.91547  0.01497  1.0000
  O   O854      1.0  0.63504  0.93212  0.30711  1.0000
  H   H939      1.0  0.66007  0.90683  0.32145  1.0000
  H   H940      1.0  0.76447  0.90616  0.31422  1.0000
  O   O855      1.0  0.87469  0.55558  0.02222  1.0000
  H   H941      1.0  0.90063  0.54178  0.00541  1.0000
  H   H942      1.0  0.81449  0.76407  0.94390  1.0000
  O   O856      1.0  0.88811  0.55606  0.30992  1.0000
  H   H943      1.0  0.88853  0.59974  0.31240  1.0000
  H   H944      1.0  0.92042  0.53880  0.31775  1.0000
  O   O857      1.0  0.86175  0.67089  0.02953  1.0000
  H   H945      1.0  0.86824  0.63236  0.02156  1.0000
  H   H946      1.0  0.82430  0.67573  0.03201  1.0000
  O   O858      1.0  0.80266  0.52634  0.40813  1.0000
  H   H947      1.0  0.80580  0.51679  0.38262  1.0000
  H   H948      1.0  0.77662  0.55496  0.41246  1.0000
  O   O859      1.0  0.88350  0.81411  0.02694  1.0000
  H   H949      1.0  0.50552  0.70727  0.93096  1.0000
  H   H950      1.0  0.88785  0.87798  0.02610  1.0000
  O   O860      1.0  0.88628  0.80582  0.31144  1.0000
  H   H951      1.0  0.86953  0.77902  0.32825  1.0000
  H   H952      1.0  0.88723  0.84406  0.32331  1.0000
  O   O861      1.0  0.88984  0.92088  0.02801  1.0000
  H   H953      1.0  0.85734  0.93682  0.01824  1.0000
  H   H954      1.0  0.90714  0.79438  0.01108  1.0000
  O   O862      1.0  0.88090  0.91711  0.31183  1.0000
  H   H955      1.0  0.90875  0.93559  0.32602  1.0000
  H   H956      1.0  0.84804  0.93640  0.31843  1.0000
  H   H957      1.0  0.79962  0.70598  0.83218  1.0000
  H   H958      1.0  0.78830  0.64491  0.82316  1.0000
  O   O863      1.0  0.77098  0.68016  0.83142  1.0000
  H   H959      1.0  0.98115  0.97840  0.58011  1.0000
  H   H960      1.0  0.94630  0.50717  0.55384  1.0000
  O   O864      1.0  0.98213  0.99697  0.55674  1.0000
  H   H961      1.0  0.97344  0.70500  0.51183  1.0000
  H   H962      1.0  0.97238  0.65038  0.48840  1.0000
  O   O865      1.0  0.99330  0.67401  0.50344  1.0000
  H   H963      1.0  0.65009  0.74953  0.31481  1.0000
  H   H964      1.0  0.69088  0.79944  0.32018  1.0000
  O   O866      1.0  0.65462  0.79133  0.32027  1.0000
  H   H965      1.0  0.94126  0.62328  0.91450  1.0000
  H   H966      1.0  0.92434  0.56462  0.93683  1.0000
  O   O867      1.0  0.91418  0.59517  0.91876  1.0000
  H   H967      1.0  0.54254  0.92517  0.86627  1.0000
  H   H968      1.0  0.60224  0.94021  0.85885  1.0000
  O   O868      1.0  0.57411  0.94143  0.87518  1.0000
  H   H969      1.0  0.84265  0.53283  0.01549  1.0000
  H   H970      1.0  0.86861  0.74118  0.93843  1.0000
  O   O869      1.0  0.83828  0.75310  0.92553  1.0000
  H   H971      1.0  0.88419  0.83401  0.91985  1.0000
  H   H972      1.0  0.85912  0.89230  0.92835  1.0000
  O   O870      1.0  0.89252  0.87469  0.92727  1.0000
  H   H973      1.0  0.90201  0.94434  0.44219  1.0000
  H   H974      1.0  0.85638  0.92677  0.46963  1.0000
  O   O871      1.0  0.88491  0.91307  0.45303  1.0000
  H   H975      1.0  0.58657  0.75343  0.86715  1.0000
  H   H976      1.0  0.57300  0.81763  0.86886  1.0000
  O   O872      1.0  0.59520  0.78802  0.87951  1.0000
  H   H977      1.0  0.73096  0.59443  0.90134  1.0000
  H   H978      1.0  0.74627  0.64950  0.87919  1.0000
  O   O873      1.0  0.73979  0.63625  0.90244  1.0000
  H   H979      1.0  0.55099  0.87665  0.97224  1.0000
  H   H980      1.0  0.60748  0.84328  0.97732  1.0000
  O   O874      1.0  0.58879  0.87923  0.97723  1.0000
  H   H981      1.0  0.85678  0.59868  0.80586  1.0000
  H   H982      1.0  0.82829  0.56546  0.83646  1.0000
  O   O875      1.0  0.82238  0.58701  0.81312  1.0000
  H   H983      1.0  0.63024  0.85061  0.44645  1.0000
  H   H984      1.0  0.67482  0.85584  0.47337  1.0000
  O   O876      1.0  0.63992  0.84176  0.47164  1.0000
  H   H985      1.0  0.53394  0.63590  0.01671  1.0000
  H   H986      1.0  0.55084  0.60108  0.98004  1.0000
  O   O877      1.0  0.55693  0.63860  0.99520  1.0000
  H   H987      1.0  0.75967  0.50833  0.58002  1.0000
  H   H988      1.0  0.80638  0.97335  0.60031  1.0000
  O   O878      1.0  0.78050  0.50407  0.60181  1.0000
  H   H989      1.0  0.64966  0.56591  0.32097  1.0000
  H   H990      1.0  0.72369  0.57414  0.32852  1.0000
  O   O879      1.0  0.69569  0.58104  0.34521  1.0000
  H   H991      1.0  0.65329  0.89897  0.75830  1.0000
  H   H992      1.0  0.68445  0.86712  0.78673  1.0000
  O   O880      1.0  0.65220  0.86380  0.77245  1.0000
  H   H993      1.0  0.83047  0.62639  0.96718  1.0000
  H   H994      1.0  0.79300  0.63038  0.93479  1.0000
  O   O881      1.0  0.80762  0.60434  0.95258  1.0000
  H   H995      1.0  0.60884  0.76954  0.50997  1.0000
  H   H996      1.0  0.65701  0.78298  0.52953  1.0000
  O   O882      1.0  0.62670  0.76077  0.53212  1.0000
  H   H997      1.0  0.64208  0.50290  0.39476  1.0000
  H   H998      1.0  0.69269  0.99198  0.41752  1.0000
  O   O883      1.0  0.67968  0.99719  0.39429  1.0000
  H   H999      1.0  0.97208  0.52211  0.97071  1.0000
  H   H1000     1.0  0.93620  0.97286  0.97278  1.0000
  O   O884      1.0  0.93420  0.51368  0.97067  1.0000
  H   H1001     1.0  0.87443  0.85325  0.51581  1.0000
  H   H1002     1.0  0.82457  0.83822  0.54083  1.0000
  O   O885      1.0  0.84567  0.87002  0.52982  1.0000
  H   H1003     1.0  0.76643  0.77863  0.00503  1.0000
  H   H1004     1.0  0.73064  0.75227  0.97481  1.0000
  O   O886      1.0  0.75920  0.77955  0.97969  1.0000
  H   H1005     1.0  0.69679  0.60810  0.53211  1.0000
  H   H1006     1.0  0.69567  0.54146  0.52961  1.0000
  O   O887      1.0  0.70780  0.57619  0.51694  1.0000
  H   H1007     1.0  0.61388  0.77515  0.65961  1.0000
  H   H1008     1.0  0.65373  0.81704  0.65041  1.0000
  O   O888      1.0  0.61660  0.81468  0.65058  1.0000
  H   H1009     1.0  0.77393  0.61650  0.46212  1.0000
  H   H1010     1.0  0.72225  0.58465  0.46676  1.0000
  O   O889      1.0  0.74573  0.60162  0.44976  1.0000
  H   H1011     1.0  0.98587  0.95458  0.52277  1.0000
  H   H1012     1.0  0.98997  0.91419  0.48924  1.0000
  O   O890      1.0  0.50506  0.94517  0.50173  1.0000
  H   H1013     1.0  0.94047  0.67544  0.30262  1.0000
  H   H1014     1.0  0.88877  0.68731  0.32867  1.0000
  O   O891      1.0  0.90278  0.66486  0.30849  1.0000
  H   H1015     1.0  0.67190  0.94632  0.54118  1.0000
  H   H1016     1.0  0.67322  0.97962  0.57560  1.0000
  O   O892      1.0  0.69597  0.96813  0.55639  1.0000
  H   H1017     1.0  0.54743  0.55684  0.47490  1.0000
  H   H1018     1.0  0.51218  0.50624  0.47542  1.0000
  O   O893      1.0  0.51913  0.53752  0.45973  1.0000
  H   H1019     1.0  0.57203  0.85464  0.77849  1.0000
  H   H1020     1.0  0.52296  0.84364  0.80233  1.0000
  O   O894      1.0  0.53583  0.86450  0.78219  1.0000
  H   H1021     1.0  0.60413  0.72562  0.42530  1.0000
  H   H1022     1.0  0.62389  0.77359  0.40154  1.0000
  O   O895      1.0  0.62089  0.73148  0.40215  1.0000
  H   H1023     1.0  0.86592  0.62483  0.46381  1.0000
  H   H1024     1.0  0.83890  0.66351  0.48892  1.0000
  O   O896      1.0  0.83959  0.65362  0.46395  1.0000
  H   H1025     1.0  0.50268  0.81795  0.75369  1.0000
  H   H1026     1.0  0.98528  0.78285  0.71964  1.0000
  O   O897      1.0  0.98243  0.78491  0.74499  1.0000
  H   H1027     1.0  0.51776  0.78523  0.02391  1.0000
  H   H1028     1.0  0.52908  0.67375  0.90048  1.0000
  O   O898      1.0  0.99670  0.68256  0.91083  1.0000
  H   H1029     1.0  0.91652  0.78752  0.75173  1.0000
  H   H1030     1.0  0.86477  0.75492  0.74023  1.0000
  O   O899      1.0  0.87803  0.78740  0.75604  1.0000
  H   H1031     1.0  0.51463  0.60458  0.77432  1.0000
  H   H1032     1.0  0.50805  0.53372  0.76843  1.0000
  O   O900      1.0  0.53039  0.56963  0.76785  1.0000
  H   H1033     1.0  0.53744  0.61876  0.35107  1.0000
  H   H1034     1.0  0.51798  0.56515  0.33470  1.0000
  O   O901      1.0  0.52132  0.58232  0.35798  1.0000
  H   H1035     1.0  0.94841  0.67984  0.62924  1.0000
  H   H1036     1.0  0.50116  0.66780  0.61452  1.0000
  O   O902      1.0  0.98452  0.68615  0.63295  1.0000
  H   H1037     1.0  0.98259  0.55712  0.86084  1.0000
  H   H1038     1.0  0.92826  0.56995  0.87518  1.0000
  O   O903      1.0  0.94644  0.55947  0.85214  1.0000
  H   H1039     1.0  0.98957  0.85345  0.85239  1.0000
  H   H1040     1.0  0.99089  0.78829  0.84703  1.0000
  O   O904      1.0  0.51016  0.82485  0.84205  1.0000
  H   H1041     1.0  0.99976  0.58685  0.56073  1.0000
  H   H1042     1.0  0.51311  0.64411  0.54415  1.0000
  O   O905      1.0  0.51672  0.62252  0.56639  1.0000
  H   H1043     1.0  0.96552  0.81785  0.45175  1.0000
  H   H1044     1.0  0.92679  0.86630  0.46659  1.0000
  O   O906      1.0  0.95882  0.84191  0.47167  1.0000
  H   H1045     1.0  0.56092  0.75104  0.96854  1.0000
  H   H1046     1.0  0.53207  0.70557  0.98711  1.0000
  O   O907      1.0  0.52335  0.73786  0.97144  1.0000
  H   H1047     1.0  0.55542  0.56564  0.72466  1.0000
  H   H1048     1.0  0.55694  0.53901  0.68562  1.0000
  O   O908      1.0  0.57504  0.56413  0.70072  1.0000
  H   H1049     1.0  0.78556  0.82729  0.33394  1.0000
  H   H1050     1.0  0.81630  0.86285  0.35964  1.0000
  O   O909      1.0  0.78211  0.85980  0.34803  1.0000
  H   H1051     1.0  0.91742  0.54122  0.42197  1.0000
  H   H1052     1.0  0.86627  0.50918  0.41659  1.0000
  O   O910      1.0  0.90492  0.50368  0.41801  1.0000
  H   H1053     1.0  0.55289  0.94243  0.37745  1.0000
  H   H1054     1.0  0.54692  0.92113  0.33579  1.0000
  O   O911      1.0  0.53810  0.91512  0.36010  1.0000
  H   H1055     1.0  0.78521  0.50418  0.32449  1.0000
  H   H1056     1.0  0.83964  0.51268  0.33772  1.0000
  O   O912      1.0  0.80908  0.98699  0.34061  1.0000
  H   H1057     1.0  0.91252  0.71113  0.99569  1.0000
  H   H1058     1.0  0.95555  0.74297  0.97397  1.0000
  O   O913      1.0  0.91793  0.74092  0.97851  1.0000
  H   H1059     1.0  0.67769  0.96638  0.64573  1.0000
  H   H1060     1.0  0.71546  0.97989  0.68001  1.0000
  O   O914      1.0  0.69369  0.95284  0.66794  1.0000
  H   H1061     1.0  0.62534  0.94695  0.96050  1.0000
  H   H1062     1.0  0.59692  0.96216  0.92636  1.0000
  O   O915      1.0  0.61632  0.97790  0.94521  1.0000
  H   H1063     1.0  0.82353  0.77816  0.59847  1.0000
  H   H1064     1.0  0.81269  0.75099  0.56141  1.0000
  O   O916      1.0  0.80464  0.78202  0.57718  1.0000
  H   H1065     1.0  0.58612  0.86094  0.37888  1.0000
  H   H1066     1.0  0.64400  0.85579  0.38524  1.0000
  O   O917      1.0  0.61055  0.84878  0.39716  1.0000
  H   H1067     1.0  0.89154  0.91863  0.73128  1.0000
  H   H1068     1.0  0.90940  0.98019  0.72345  1.0000
  O   O918      1.0  0.89924  0.95666  0.74289  1.0000
  H   H1069     1.0  0.80110  0.96214  0.96143  1.0000
  H   H1070     1.0  0.78362  0.94937  0.99805  1.0000
  O   O919      1.0  0.81341  0.96505  0.98525  1.0000
  H   H1071     1.0  0.72543  0.84628  0.96991  1.0000
  H   H1072     1.0  0.71579  0.90254  0.95145  1.0000
  O   O920      1.0  0.70065  0.87838  0.96804  1.0000
  H   H1073     1.0  0.61661  0.99776  0.71405  1.0000
  H   H1074     1.0  0.64869  0.94481  0.70186  1.0000
  O   O921      1.0  0.62626  0.95984  0.72108  1.0000
  H   H1075     1.0  0.64324  0.70409  0.81288  1.0000
  H   H1076     1.0  0.62468  0.63855  0.80776  1.0000
  O   O922      1.0  0.61327  0.67491  0.81779  1.0000
  H   H1077     1.0  0.72000  0.71111  0.81511  1.0000
  H   H1078     1.0  0.69630  0.76916  0.82237  1.0000
  O   O923      1.0  0.69178  0.73575  0.80609  1.0000
  H   H1079     1.0  0.53735  0.70796  0.47208  1.0000
  H   H1080     1.0  0.52436  0.74076  0.44302  1.0000
  O   O924      1.0  0.55508  0.73330  0.45726  1.0000
  H   H1081     1.0  0.62098  0.89819  0.49614  1.0000
  H   H1082     1.0  0.57315  0.93639  0.50883  1.0000
  O   O925      1.0  0.61086  0.93107  0.51159  1.0000
  H   H1083     1.0  0.50476  0.82587  0.66793  1.0000
  H   H1084     1.0  0.98593  0.76299  0.66041  1.0000
  O   O926      1.0  0.97867  0.79795  0.67386  1.0000
  H   H1085     1.0  0.74906  0.76272  0.40743  1.0000
  H   H1086     1.0  0.77184  0.81423  0.38749  1.0000
  O   O927      1.0  0.76358  0.80160  0.41130  1.0000
  H   H1087     1.0  0.94828  0.62201  0.43352  1.0000
  H   H1088     1.0  0.96702  0.57870  0.46374  1.0000
  O   O928      1.0  0.93597  0.60324  0.45536  1.0000
  H   H1089     1.0  0.91612  0.99671  0.83746  1.0000
  H   H1090     1.0  0.92909  0.95968  0.80717  1.0000
  O   O929      1.0  0.90510  0.95957  0.82606  1.0000
  H   H1091     1.0  0.95973  0.96363  0.75962  1.0000
  H   H1092     1.0  0.50551  0.93446  0.77737  1.0000
  O   O930      1.0  0.98727  0.97170  0.77552  1.0000
  H   H1093     1.0  0.96323  0.62317  0.37660  1.0000
  H   H1094     1.0  0.96434  0.68822  0.38121  1.0000
  O   O931      1.0  0.94358  0.65592  0.38778  1.0000
  H   H1095     1.0  0.72248  0.56262  0.72519  1.0000
  H   H1096     1.0  0.66889  0.59599  0.71175  1.0000
  O   O932      1.0  0.69503  0.59040  0.73201  1.0000
  H   H1097     1.0  0.98982  0.79401  0.58688  1.0000
  H   H1098     1.0  0.93339  0.79421  0.60101  1.0000
  O   O933      1.0  0.95567  0.81024  0.58337  1.0000
  H   H1099     1.0  0.86486  0.62186  0.61733  1.0000
  H   H1100     1.0  0.89958  0.61303  0.58408  1.0000
  O   O934      1.0  0.89223  0.63889  0.60207  1.0000
  H   H1101     1.0  0.52049  0.96331  0.67772  1.0000
  H   H1102     1.0  0.51353  0.98567  0.64202  1.0000
  O   O935      1.0  0.51305  0.50023  0.66586  1.0000
  H   H1103     1.0  0.80692  0.86403  0.87222  1.0000
  H   H1104     1.0  0.80638  0.82130  0.90630  1.0000
  O   O936      1.0  0.78540  0.84748  0.89291  1.0000
  H   H1105     1.0  0.72789  0.71531  0.73622  1.0000
  H   H1106     1.0  0.73292  0.65011  0.73475  1.0000
  O   O937      1.0  0.75472  0.68285  0.72886  1.0000
  H   H1107     1.0  0.74566  0.60314  0.97573  1.0000
  H   H1108     1.0  0.73846  0.56913  0.01053  1.0000
  O   O938      1.0  0.72134  0.58328  0.99042  1.0000
  H   H1109     1.0  0.58111  0.70322  0.36588  1.0000
  H   H1110     1.0  0.59021  0.68452  0.32978  1.0000
  O   O939      1.0  0.56020  0.68962  0.34654  1.0000
  H   H1111     1.0  0.77956  0.64972  0.33413  1.0000
  H   H1112     1.0  0.75910  0.65492  0.37163  1.0000
  O   O940      1.0  0.79012  0.64197  0.35828  1.0000
  H   H1113     1.0  0.68466  0.95146  0.82112  1.0000
  H   H1114     1.0  0.64500  0.50043  0.81982  1.0000
  O   O941      1.0  0.65925  0.97198  0.83552  1.0000
  H   H1115     1.0  0.86949  0.52495  0.58383  1.0000
  H   H1116     1.0  0.85118  0.54429  0.54634  1.0000
  O   O942      1.0  0.88256  0.54406  0.56266  1.0000
  H   H1117     1.0  0.80589  0.51857  0.50009  1.0000
  H   H1118     1.0  0.77938  0.57031  0.51838  1.0000
  O   O943      1.0  0.81393  0.55177  0.51529  1.0000
  H   H1119     1.0  0.92970  0.93162  0.60531  1.0000
  H   H1120     1.0  0.98626  0.90878  0.60406  1.0000
  O   O944      1.0  0.96497  0.93637  0.61531  1.0000
  H   H1121     1.0  0.63055  0.57184  0.49398  1.0000
  H   H1122     1.0  0.59078  0.61599  0.51140  1.0000
  O   O945      1.0  0.59471  0.58636  0.49461  1.0000
  H   H1123     1.0  0.84759  0.55605  0.90039  1.0000
  H   H1124     1.0  0.80711  0.50567  0.88733  1.0000
  O   O946      1.0  0.82952  0.53655  0.88062  1.0000
  H   H1125     1.0  0.77214  0.88944  0.81324  1.0000
  H   H1126     1.0  0.76304  0.94100  0.78909  1.0000
  O   O947      1.0  0.74458  0.91755  0.80475  1.0000
  H   H1127     1.0  0.85460  0.80379  0.65053  1.0000
  H   H1128     1.0  0.86497  0.74024  0.66406  1.0000
  O   O948      1.0  0.85832  0.76389  0.64279  1.0000
  H   H1129     1.0  0.58560  0.80026  0.61508  1.0000
  H   H1130     1.0  0.58922  0.78575  0.57472  1.0000
  O   O949      1.0  0.56728  0.79641  0.59310  1.0000
  H   H1131     1.0  0.64672  0.74717  0.95718  1.0000
  H   H1132     1.0  0.60865  0.77807  0.92885  1.0000
  O   O950      1.0  0.61516  0.76822  0.95275  1.0000
  H   H1133     1.0  0.55129  0.52096  0.87867  1.0000
  H   H1134     1.0  0.56357  0.58790  0.88475  1.0000
  O   O951      1.0  0.53370  0.55706  0.88491  1.0000
  H   H1135     1.0  0.74711  0.96501  0.91111  1.0000
  H   H1136     1.0  0.78882  0.91006  0.90914  1.0000
  O   O952      1.0  0.78134  0.94830  0.92045  1.0000
  H   H1137     1.0  0.56505  0.51970  0.42084  1.0000
  H   H1138     1.0  0.56615  0.53311  0.37992  1.0000
  O   O953      1.0  0.58004  0.50804  0.39761  1.0000
  H   H1139     1.0  0.71759  0.73736  0.63100  1.0000
  H   H1140     1.0  0.74087  0.76004  0.59674  1.0000
  O   O954      1.0  0.71164  0.73868  0.60620  1.0000
  H   H1141     1.0  0.95665  0.63279  0.71582  1.0000
  H   H1142     1.0  0.93039  0.61321  0.74976  1.0000
  O   O955      1.0  0.92655  0.61332  0.72539  1.0000
  H   H1143     1.0  0.92008  0.65637  0.80490  1.0000
  H   H1144     1.0  0.93450  0.59786  0.81820  1.0000
  O   O956      1.0  0.92279  0.61856  0.79533  1.0000
  H   H1145     1.0  0.94122  0.90323  0.89537  1.0000
  H   H1146     1.0  0.93159  0.91596  0.85608  1.0000
  O   O957      1.0  0.96005  0.90465  0.87208  1.0000
  H   H1147     1.0  0.66306  0.81294  0.85661  1.0000
  H   H1148     1.0  0.72312  0.82010  0.86514  1.0000
  O   O958      1.0  0.69663  0.81949  0.84667  1.0000
  H   H1149     1.0  0.55791  0.68860  0.78971  1.0000
  H   H1150     1.0  0.51052  0.72199  0.76831  1.0000
  O   O959      1.0  0.51904  0.69057  0.78442  1.0000
  H   H1151     1.0  0.89472  0.75851  0.82674  1.0000
  H   H1152     1.0  0.85275  0.77362  0.79549  1.0000
  O   O960      1.0  0.85904  0.77205  0.82202  1.0000
  H   H1153     1.0  0.90390  0.87007  0.38403  1.0000
  H   H1154     1.0  0.86575  0.87396  0.41334  1.0000
  O   O961      1.0  0.86782  0.85854  0.38879  1.0000
  H   H1155     1.0  0.90220  0.84654  0.68939  1.0000
  H   H1156     1.0  0.87133  0.82818  0.72095  1.0000
  O   O962      1.0  0.87265  0.85760  0.70131  1.0000
  H   H1157     1.0  0.77394  0.50186  0.72340  1.0000
  H   H1158     1.0  0.78455  0.53304  0.68548  1.0000
  O   O963      1.0  0.75702  0.51965  0.70159  1.0000
  H   H1159     1.0  0.57738  0.91340  0.70194  1.0000
  H   H1160     1.0  0.57961  0.86375  0.67592  1.0000
  O   O964      1.0  0.55595  0.88963  0.68524  1.0000
  H   H1161     1.0  0.98484  0.96198  0.35661  1.0000
  H   H1162     1.0  0.93341  0.98229  0.37691  1.0000
  O   O965      1.0  0.95201  0.98174  0.35327  1.0000
  H   H1163     1.0  0.51050  0.66336  0.67060  1.0000
  H   H1164     1.0  0.53414  0.62222  0.69691  1.0000
  O   O966      1.0  0.51426  0.65783  0.69613  1.0000
  H   H1165     1.0  0.81107  0.54514  0.63272  1.0000
  H   H1166     1.0  0.85235  0.55581  0.66335  1.0000
  O   O967      1.0  0.82597  0.57509  0.64838  1.0000
  H   H1167     1.0  0.69280  0.92761  0.37094  1.0000
  H   H1168     1.0  0.72974  0.88254  0.35768  1.0000
  O   O968      1.0  0.69099  0.89536  0.35733  1.0000
  H   H1169     1.0  0.82032  0.68779  0.72154  1.0000
  H   H1170     1.0  0.88020  0.66726  0.71833  1.0000
  O   O969      1.0  0.85560  0.69938  0.71399  1.0000
  H   H1171     1.0  0.92457  0.75686  0.42129  1.0000
  H   H1172     1.0  0.96153  0.79108  0.39568  1.0000
  O   O970      1.0  0.96147  0.77003  0.41839  1.0000
  H   H1173     1.0  0.77498  0.85321  0.64306  1.0000
  H   H1174     1.0  0.82226  0.87593  0.66692  1.0000
  O   O971      1.0  0.80447  0.87841  0.64493  1.0000
  H   H1175     1.0  0.98893  0.86881  0.36663  1.0000
  H   H1176     1.0  0.97545  0.81289  0.34243  1.0000
  O   O972      1.0  0.96389  0.83673  0.36439  1.0000
  H   H1177     1.0  0.68713  0.69119  0.58059  1.0000
  H   H1178     1.0  0.64637  0.68822  0.54931  1.0000
  O   O973      1.0  0.67026  0.66301  0.56266  1.0000
  H   H1179     1.0  0.85343  0.90703  0.82772  1.0000
  H   H1180     1.0  0.84736  0.84149  0.83197  1.0000
  O   O974      1.0  0.82850  0.87735  0.83522  1.0000
  H   H1181     1.0  0.97635  0.69459  0.85742  1.0000
  H   H1182     1.0  0.97873  0.70453  0.81661  1.0000
  O   O975      1.0  0.95980  0.71465  0.83781  1.0000
  H   H1183     1.0  0.63259  0.67716  0.68246  1.0000
  H   H1184     1.0  0.57858  0.70022  0.69781  1.0000
  O   O976      1.0  0.61582  0.71012  0.69248  1.0000
  H   H1185     1.0  0.83242  0.69878  0.36039  1.0000
  H   H1186     1.0  0.86807  0.74007  0.38161  1.0000
  O   O977      1.0  0.85891  0.72735  0.35650  1.0000
  H   H1187     1.0  0.65416  0.57071  0.77580  1.0000
  H   H1188     1.0  0.59623  0.56078  0.78031  1.0000
  O   O978      1.0  0.62896  0.56195  0.79443  1.0000
  H   H1189     1.0  0.57949  0.59922  0.58715  1.0000
  H   H1190     1.0  0.63469  0.62448  0.58863  1.0000
  O   O979      1.0  0.61190  0.59633  0.59926  1.0000
  H   H1191     1.0  0.66285  0.75183  0.71437  1.0000
  H   H1192     1.0  0.67639  0.79064  0.74532  1.0000
  O   O980      1.0  0.69249  0.77296  0.72483  1.0000
  H   H1193     1.0  0.68503  0.71002  0.39731  1.0000
  H   H1194     1.0  0.71617  0.67167  0.42369  1.0000
  O   O981      1.0  0.72070  0.69801  0.40317  1.0000
  H   H1195     1.0  0.70324  0.67230  0.93404  1.0000
  H   H1196     1.0  0.73387  0.67660  0.03219  1.0000
  O   O982      1.0  0.68904  0.68759  0.95633  1.0000
  H   H1197     1.0  0.95630  0.86542  0.97023  1.0000
  H   H1198     1.0  0.98386  0.88816  0.00345  1.0000
  O   O983      1.0  0.98715  0.88274  0.97905  1.0000
  H   H1199     1.0  0.68628  0.63443  0.66110  1.0000
  H   H1200     1.0  0.62799  0.61185  0.64916  1.0000
  O   O984      1.0  0.65035  0.62022  0.66933  1.0000
  H   H1201     1.0  0.80686  0.53056  0.77675  1.0000
  H   H1202     1.0  0.83474  0.98449  0.75264  1.0000
  O   O985      1.0  0.80054  0.50061  0.75890  1.0000
  H   H1203     1.0  0.85245  0.91256  0.56809  1.0000
  H   H1204     1.0  0.84282  0.89346  0.60879  1.0000
  O   O986      1.0  0.85956  0.92132  0.59223  1.0000
  H   H1205     1.0  0.52273  0.68603  0.31005  1.0000
  H   H1206     1.0  0.85680  0.71920  0.44015  1.0000
  O   O987      1.0  0.86301  0.75156  0.42609  1.0000
  H   H1207     1.0  0.71002  0.86466  0.62018  1.0000
  H   H1208     1.0  0.70958  0.90844  0.59293  1.0000
  O   O988      1.0  0.70787  0.86760  0.59508  1.0000
  H   H1209     1.0  0.60344  0.66532  0.86379  1.0000
  H   H1210     1.0  0.62236  0.66224  0.90136  1.0000
  O   O989      1.0  0.59328  0.65176  0.88756  1.0000
  H   H1211     1.0  0.93980  0.79709  0.50000  1.0000
  H   H1212     1.0  0.93500  0.78214  0.54167  1.0000
  O   O990      1.0  0.92883  0.76821  0.51783  1.0000
  O   O991      1.0  0.80264  0.96535  0.46901  1.0000
  H   H1213     1.0  0.79716  0.98401  0.44607  1.0000
  H   H1214     1.0  0.77796  0.93481  0.46958  1.0000
  O   O992      1.0  0.71592  0.82926  0.66552  1.0000
  H   H1215     1.0  0.71897  0.80653  0.68783  1.0000
  H   H1216     1.0  0.70637  0.86467  0.67519  1.0000
  O   O993      1.0  0.83955  0.70280  0.53212  1.0000
  H   H1217     1.0  0.85092  0.67645  0.54922  1.0000
  H   H1218     1.0  0.87138  0.71850  0.52307  1.0000
  O   O994      1.0  0.57762  0.91617  0.58283  1.0000
  H   H1219     1.0  0.57866  0.87422  0.58496  1.0000
  H   H1220     1.0  0.59108  0.91864  0.55853  1.0000
  O   O995      1.0  0.74489  0.67327  0.66256  1.0000
  H   H1221     1.0  0.75101  0.68525  0.68711  1.0000
  H   H1222     1.0  0.76853  0.64229  0.65417  1.0000
  O   O996      1.0  0.70438  0.51922  0.89851  1.0000
  H   H1223     1.0  0.69539  0.50367  0.87402  1.0000
  H   H1224     1.0  0.67170  0.52495  0.91217  1.0000
  O   O997      1.0  0.64359  0.99462  0.61174  1.0000
  H   H1225     1.0  0.61654  0.96747  0.60649  1.0000
  H   H1226     1.0  0.63279  0.53536  0.60932  1.0000
  O   O998      1.0  0.53881  0.54828  0.95651  1.0000
  H   H1227     1.0  0.53635  0.55690  0.93133  1.0000
  H   H1228     1.0  0.57070  0.52485  0.95753  1.0000
  O   O999      1.0  0.90763  0.52528  0.68421  1.0000
  H   H1229     1.0  0.91401  0.55841  0.69979  1.0000
  H   H1230     1.0  0.94021  0.52349  0.67057  1.0000
  O   O1000     1.0  0.72034  0.82960  0.52650  1.0000
  H   H1231     1.0  0.74315  0.80331  0.53930  1.0000
  H   H1232     1.0  0.71081  0.85249  0.54692  1.0000
