data_image0
_chemical_formula_structural       Ti2O3Ti2O3Ti2O3Ti2O3Ti2O3Ti2O3Ti2O4Ti2O4Ti2O4Ti2O4Ti2O4Ti2O4Ti2O4Ti2O4Ti2O4Ti2O4Ti2O4Ti2O4Ti2O4Ti2O4Ti2O4Ti2O4Ti2O4Ti2O4Ti2O4Ti2O4Ti2O4Ti2O4Ti2O4Ti2O4Ti2O4Ti2O4Ti2O4Ti2O4Ti2O4Ti2O4Ti2O4Ti2O4Ti2O4Ti2O4Ti2O4Ti2O4Ti2O4Ti2O4Ti2O4Ti2O4Ti2O4Ti2O4Ti2O4Ti2O4Ti2O4Ti2O4Ti2O4Ti2O4Ti2O4Ti2O4Ti2O4Ti2O4Ti2O4Ti2O4Ti2O4Ti2O4Ti2O4Ti2O4Ti2O4Ti2O4Ti2O4Ti2O4Ti2O4Ti2O4Ti2O4Ti2O4Ti2O4Ti2O4Ti2O4Ti2O4Ti2O4Ti2O4Ti2O4Ti2O4Ti2O4Ti2O4Ti2O3Ti2O3Ti2O3Ti2O3Ti2O3Ti2O3Ti2O16H2OH2OH2OH2OH2OH2OH2OH2OH2OH2OH2OH2OH2OH2OH2OH2OH2OH2OH2OH2OH2OH2OH2OH2OH2OH2OH2OH2OH2OH2OH2OH2OH2OH2OH2OH2OH2OTi2O3Ti2O3Ti2O3Ti2O3Ti2O3Ti2O3Ti2O4Ti2O4Ti2O4Ti2O4Ti2O4Ti2O4Ti2O4Ti2O4Ti2O4Ti2O4Ti2O4Ti2O4Ti2O4Ti2O4Ti2O4Ti2O4Ti2O4Ti2O4Ti2O4Ti2O4Ti2O4Ti2O4Ti2O4Ti2O4Ti2O4Ti2O4Ti2O4Ti2O4Ti2O4Ti2O4Ti2O4Ti2O4Ti2O4Ti2O4Ti2O4Ti2O4Ti2O4Ti2O4Ti2O4Ti2O4Ti2O4Ti2O4Ti2O4Ti2O4Ti2O4Ti2O4Ti2O4Ti2O4Ti2O4Ti2O4Ti2O4Ti2O4Ti2O4Ti2O4Ti2O4Ti2O4Ti2O4Ti2O4Ti2O4Ti2O4Ti2O4Ti2O4Ti2O4Ti2O4Ti2O4Ti2O4Ti2O4Ti2O4Ti2O4Ti2O4Ti2O4Ti2O4Ti2O4Ti2O4Ti2O4Ti2O4Ti2O3Ti2O3Ti2O3Ti2O3Ti2O3Ti2O3Ti2O16H2OH2OH2OH2OH2OH2OH2OH2OH2OH2OH2OH2OH2OH2OH2OH2OH2OH2OH2OH2OH2OH2OH2OH2OH2OH2OH2OH2OH2OH2OH2OH2OH2OH2OH2OH2OH2OH2OH2OH2OH2OH2OH2OH2OH2OH2OH2OH2OH2OH2OH2OH2OH2OH2OH2OH2OH2OH2OH2OH2OH2OH2OH2OH2OH2OH2OH2OH2OH2OH2OH2OH2OH2OH2OH2OH2OH2OH2OH2OH2OH2OH2OH2OH2OH2OH2OH2OH2OH2OH2OH2OH2OH2OH2OH2OH2OH2OH2OH2OH2OH2OH2OH2OH2OH2OH2OH2OH2OH2OH2OH2OH2OH2OH2OH2OH2OH2OH2OH2OH2OH2OH2OH2OH2OH2OH2OH2OH2OH2OH2OH2OH2OH2OH2OH2OH2OH2OH2OH2OH2OH2OH2OH2OH2OH2OH2OH2OH2OH2OH2OH2OH2OH2OH2OH2OH2OH2OH2OH2OH2OH2OH2OH2OH2OH2OH2OH2OH2OH2OH2OH2OH2OH2OH2OH2OH2OH2OH2OH2OH2OH2OH2OH2OH2OH2OH2OH2OH2OH2OH2OH2OH2OH2OH2OH2OH2OH2OH2OH2OH2OH2OH2OH2OH2OH2OH2OH2OH2OH2OH2OH2OH2OH2OH2OH2OH2OH2OH2OH2OH2OH2OH2OH2OH2OH2OH2OH2OH2OH2OH2OH2OH2OH2OH2OH2OH2OH2OH2OH2OH2OH2OH2OH2OH2OH2OH2OH2OH2OH2OH2OH2OH2OH2OH2OH2OH2OH2OH2OH2OH2OH2OH2OH2OH2OH2OH2OH2OH2OH2OH2OH2OH2OH2OH2OH2OH2OH2OH2OH2OH2OH2OH2OH2OH2OH2OH2OH2OH2OH2OH2OH2OH2OH2OH2OH2OH2OH2OH2OH2OH2OH2OH2OH2OH2OH2OH2OH2OH2OH2OH2OH2OH2OH2OH2OH2OH2OH2OH2OH2OH2OH2OH2OH2OH2OH2OH2OH2OH2OH2OH2OH2OH2OH2OH2OH2OH2OH2OH2OH2OH2OH2OH2OH2OH2OH2OH2OH2OH2OH2OH2OH2OH2OH2OH2OH2OH2OH2OH2OH2OH2OH2OH2OH2OH2OH2OH2OH2OH2OH2OH2OH2OH2OH2OH2OH2OH2OH2OH2OH2OH2OH2OH2OH2OH2OH2OH2OH2OH2OH2OH2OH2OH2OH2OH2OH2OH2OH2OH2OH2OH2OH2OH2OH2OH2OH2OH2OH2OH2OH2OH2OH2OH2OH2OH2OH2OH2OH2OH2OH2OH2OH2OH2OH2OH2OH2OH2OH2OH2OH2OH2OH2OH2OH2OH2OH2OH2OH2OH2OH2OH2OH2OH2OH2OH2OH2OH2OH2OH2OH2OH2OH2OH2OH2OH2OH2OH2OH2OH2OH2OH2OH2OH2OH2OH2OH2OH2OH2OH2OH2OH2OH2OH2OH2OH2OH2OH2OH2OH2OH2OH2OH2OH2OH2OH2OH2OH2OH2OH2OH2OH2OH2OH2OH2OH2OH2OH2OH2OH2OH2OH2OH2OH2OH2OH2OH2OH2OH2OH2OH2OH2OH2OH2OH2OH2OH2OH2OH2OH2OH2OH2OH2OH2OH2OH2OH2OH2OH2OH2OH2OH2OH2OH2OH2OH2OH2OH2OH2OH2OH2OH2OH2OH2OH2OH2OH2OH2OH2OH2OH2OH2OH2OH2OH2OH2OH2OH2OH2OH2OH2OH2OH2OH2OH2OH2OH2OH2OH2OH2OH2OH2OH2OH2OH2OH2OH2OH2OH2OH2OH2OH2OH2OH2OH2OH2OH2OH2OH2OH2OH2OH2OH2OH2OH2OH2OH2OH2OH2OH2OH2OH2OH2OH2OH2OH2OH2OH2OH2OH2OH2OH2OH2OH2OH2O2H2OH2OH2OH2OH2OH2OH2OH2OH2OH2OH2OH2OH2OH2OH2OH2OH2OH2OH2OH2OH2OH2OH2OH2OH2OH2OH2OH2OH2OH2OH2OH2OH2OH2OH2OH2OH2OH2OH2OH2OH2OH2OH2OH2OH2OH2OH2OH2OH2OH2OH2OH2OH2OH2OH2OH2OH2OH2OH2OH2OH2OH2OH2OH2OH2OH2OH2OH2OH2OH2OH2OH2OH2OH2
_chemical_formula_sum              "Ti356 O1436 H1448"
_cell_length_a       50.5123
_cell_length_b       14.2754
_cell_length_c       47.8433
_cell_angle_alpha    90
_cell_angle_beta     90
_cell_angle_gamma    69.2476

_space_group_name_H-M_alt    "P 1"
_space_group_IT_number       1

loop_
  _space_group_symop_operation_xyz
  'x, y, z'

loop_
  _atom_site_type_symbol
  _atom_site_label
  _atom_site_symmetry_multiplicity
  _atom_site_fract_x
  _atom_site_fract_y
  _atom_site_fract_z
  _atom_site_occupancy
  Ti  Ti1       1.0  0.95655  0.23771  0.06629  1.0000
  Ti  Ti2       1.0  0.95771  0.00839  0.06673  1.0000
  O   O1        1.0  0.94283  0.39442  0.06127  1.0000
  O   O2        1.0  0.91990  0.07510  0.06051  1.0000
  O   O3        1.0  0.52167  0.16900  0.06261  1.0000
  Ti  Ti3       1.0  0.90010  0.23295  0.06090  1.0000
  Ti  Ti4       1.0  0.90465  0.47642  0.06800  1.0000
  O   O4        1.0  0.88443  0.38129  0.06738  1.0000
  O   O5        1.0  0.85844  0.07107  0.06937  1.0000
  O   O6        1.0  0.47027  0.13325  0.06771  1.0000
  Ti  Ti5       1.0  0.84052  0.21999  0.07028  1.0000
  Ti  Ti6       1.0  0.84600  0.45803  0.07089  1.0000
  O   O7        1.0  0.82739  0.36499  0.06872  1.0000
  O   O8        1.0  0.80300  0.05259  0.06969  1.0000
  O   O9        1.0  0.41263  0.12502  0.07087  1.0000
  Ti  Ti7       1.0  0.78426  0.19762  0.07139  1.0000
  Ti  Ti8       1.0  0.78717  0.45614  0.07608  1.0000
  O   O10       1.0  0.76895  0.34377  0.07386  1.0000
  O   O11       1.0  0.74626  0.03942  0.07683  1.0000
  O   O12       1.0  0.35547  0.10958  0.07959  1.0000
  Ti  Ti9       1.0  0.72592  0.18169  0.07331  1.0000
  Ti  Ti10      1.0  0.73158  0.43186  0.07782  1.0000
  O   O13       1.0  0.71228  0.33886  0.07589  1.0000
  O   O14       1.0  0.68613  0.01830  0.07352  1.0000
  O   O15       1.0  0.29666  0.09829  0.08515  1.0000
  Ti  Ti11      1.0  0.66859  0.16488  0.07712  1.0000
  Ti  Ti12      1.0  0.67214  0.42152  0.08310  1.0000
  O   O16       1.0  0.65312  0.32847  0.08010  1.0000
  O   O17       1.0  0.63210  0.01741  0.08908  1.0000
  O   O18       1.0  0.24417  0.05730  0.08743  1.0000
  Ti  Ti13      1.0  0.61092  0.16181  0.08090  1.0000
  Ti  Ti14      1.0  0.61613  0.41743  0.08732  1.0000
  O   O19       1.0  0.59946  0.31209  0.08901  1.0000
  O   O20       1.0  0.57867  0.50295  0.08528  1.0000
  O   O21       1.0  0.18417  0.07120  0.09077  1.0000
  O   O22       1.0  0.98930  0.24588  0.08530  1.0000
  Ti  Ti15      1.0  0.55633  0.16331  0.09523  1.0000
  Ti  Ti16      1.0  0.56209  0.39487  0.08959  1.0000
  O   O23       1.0  0.54117  0.30468  0.09023  1.0000
  O   O24       1.0  0.51889  0.48925  0.09143  1.0000
  O   O25       1.0  0.13295  0.03837  0.09506  1.0000
  O   O26       1.0  0.93162  0.22455  0.09312  1.0000
  Ti  Ti17      1.0  0.49836  0.14145  0.09231  1.0000
  Ti  Ti18      1.0  0.49992  0.39596  0.09427  1.0000
  O   O27       1.0  0.48401  0.28464  0.09392  1.0000
  O   O28       1.0  0.46186  0.47138  0.09352  1.0000
  O   O29       1.0  0.07202  0.02725  0.09960  1.0000
  O   O30       1.0  0.87316  0.21996  0.09641  1.0000
  Ti  Ti19      1.0  0.43979  0.13524  0.09354  1.0000
  Ti  Ti20      1.0  0.44398  0.37198  0.10057  1.0000
  O   O31       1.0  0.42641  0.27633  0.09559  1.0000
  O   O32       1.0  0.40368  0.46058  0.10009  1.0000
  O   O33       1.0  0.01806  0.00394  0.10280  1.0000
  O   O34       1.0  0.81515  0.21638  0.09958  1.0000
  Ti  Ti21      1.0  0.38535  0.10970  0.09713  1.0000
  Ti  Ti22      1.0  0.38555  0.35475  0.10498  1.0000
  O   O35       1.0  0.36934  0.25293  0.10307  1.0000
  O   O36       1.0  0.34905  0.44515  0.10442  1.0000
  O   O37       1.0  0.96222  0.49347  0.10095  1.0000
  O   O38       1.0  0.75956  0.18850  0.10358  1.0000
  Ti  Ti23      1.0  0.32936  0.09932  0.11082  1.0000
  Ti  Ti24      1.0  0.33043  0.34902  0.10943  1.0000
  O   O39       1.0  0.31276  0.24205  0.11159  1.0000
  O   O40       1.0  0.29182  0.43468  0.10776  1.0000
  O   O41       1.0  0.90349  0.48864  0.10673  1.0000
  O   O42       1.0  0.70195  0.17184  0.10463  1.0000
  Ti  Ti25      1.0  0.27101  0.06891  0.11100  1.0000
  Ti  Ti26      1.0  0.27496  0.32979  0.10461  1.0000
  O   O43       1.0  0.25674  0.22775  0.11006  1.0000
  O   O44       1.0  0.23579  0.41597  0.11207  1.0000
  O   O45       1.0  0.84766  0.46091  0.11171  1.0000
  O   O46       1.0  0.64774  0.16968  0.10921  1.0000
  Ti  Ti27      1.0  0.21525  0.06984  0.11668  1.0000
  Ti  Ti28      1.0  0.21812  0.31624  0.11565  1.0000
  O   O47       1.0  0.19983  0.20681  0.11470  1.0000
  O   O48       1.0  0.17759  0.39767  0.11603  1.0000
  O   O49       1.0  0.79016  0.45167  0.11558  1.0000
  O   O50       1.0  0.58797  0.15542  0.11428  1.0000
  Ti  Ti29      1.0  0.16046  0.06145  0.11647  1.0000
  Ti  Ti30      1.0  0.15922  0.30546  0.12171  1.0000
  O   O51       1.0  0.14105  0.20057  0.12155  1.0000
  O   O52       1.0  0.12119  0.39046  0.11953  1.0000
  O   O53       1.0  0.73079  0.44484  0.11740  1.0000
  O   O54       1.0  0.53148  0.14399  0.11816  1.0000
  Ti  Ti31      1.0  0.10234  0.04260  0.12128  1.0000
  Ti  Ti32      1.0  0.10158  0.29351  0.12773  1.0000
  O   O55       1.0  0.08519  0.18922  0.11883  1.0000
  O   O56       1.0  0.06175  0.36994  0.12796  1.0000
  O   O57       1.0  0.67424  0.42657  0.12086  1.0000
  O   O58       1.0  0.47689  0.12024  0.12222  1.0000
  Ti  Ti33      1.0  0.04986  0.01617  0.12946  1.0000
  Ti  Ti34      1.0  0.04489  0.26831  0.13137  1.0000
  O   O59       1.0  0.02944  0.16032  0.12705  1.0000
  O   O60       1.0  0.00756  0.34955  0.12594  1.0000
  O   O61       1.0  0.61810  0.41256  0.12848  1.0000
  O   O62       1.0  0.42022  0.11223  0.12661  1.0000
  Ti  Ti35      1.0  0.99472  0.99924  0.12943  1.0000
  Ti  Ti36      1.0  0.99153  0.24102  0.12349  1.0000
  O   O63       1.0  0.97458  0.14575  0.13615  1.0000
  O   O64       1.0  0.95335  0.33657  0.13046  1.0000
  O   O65       1.0  0.56256  0.40849  0.13020  1.0000
  O   O66       1.0  0.36285  0.07789  0.13016  1.0000
  Ti  Ti37      1.0  0.93706  0.48210  0.13408  1.0000
  Ti  Ti38      1.0  0.93343  0.23085  0.13713  1.0000
  O   O67       1.0  0.91755  0.12874  0.13870  1.0000
  O   O68       1.0  0.89535  0.32182  0.13558  1.0000
  O   O69       1.0  0.50364  0.38724  0.13483  1.0000
  O   O70       1.0  0.30580  0.07545  0.13984  1.0000
  Ti  Ti39      1.0  0.88066  0.45852  0.13566  1.0000
  Ti  Ti40      1.0  0.87585  0.21914  0.13457  1.0000
  O   O71       1.0  0.85978  0.12361  0.13832  1.0000
  O   O72       1.0  0.83817  0.30864  0.13843  1.0000
  O   O73       1.0  0.44600  0.36254  0.13870  1.0000
  O   O74       1.0  0.24716  0.05814  0.14068  1.0000
  Ti  Ti41      1.0  0.82226  0.45926  0.14284  1.0000
  Ti  Ti42      1.0  0.81868  0.21813  0.13944  1.0000
  O   O75       1.0  0.80407  0.10199  0.13938  1.0000
  O   O76       1.0  0.78043  0.29418  0.14401  1.0000
  O   O77       1.0  0.38904  0.34651  0.14327  1.0000
  O   O78       1.0  0.19204  0.05106  0.14449  1.0000
  Ti  Ti43      1.0  0.76292  0.44571  0.14175  1.0000
  Ti  Ti44      1.0  0.76397  0.18759  0.14113  1.0000
  O   O79       1.0  0.74526  0.08554  0.14757  1.0000
  O   O80       1.0  0.72522  0.27782  0.14620  1.0000
  O   O81       1.0  0.33349  0.33971  0.14757  1.0000
  O   O82       1.0  0.13284  0.04429  0.14861  1.0000
  Ti  Ti45      1.0  0.70862  0.42299  0.15139  1.0000
  Ti  Ti46      1.0  0.70574  0.17612  0.14698  1.0000
  O   O83       1.0  0.69030  0.07261  0.15023  1.0000
  O   O84       1.0  0.66662  0.26358  0.15124  1.0000
  O   O85       1.0  0.27484  0.34051  0.15337  1.0000
  O   O86       1.0  0.07658  0.03468  0.15349  1.0000
  Ti  Ti47      1.0  0.65004  0.40484  0.15282  1.0000
  Ti  Ti48      1.0  0.64928  0.15674  0.14866  1.0000
  O   O87       1.0  0.63247  0.06007  0.15381  1.0000
  O   O88       1.0  0.61074  0.24428  0.15346  1.0000
  O   O89       1.0  0.21944  0.31509  0.15530  1.0000
  O   O90       1.0  0.02283  0.98842  0.15738  1.0000
  Ti  Ti49      1.0  0.59062  0.42246  0.16002  1.0000
  Ti  Ti50      1.0  0.59408  0.14659  0.16169  1.0000
  O   O91       1.0  0.57431  0.05122  0.15790  1.0000
  O   O92       1.0  0.55182  0.23956  0.15736  1.0000
  O   O93       1.0  0.16040  0.29990  0.16087  1.0000
  O   O94       1.0  0.96498  0.48935  0.15671  1.0000
  Ti  Ti51      1.0  0.53927  0.37873  0.15785  1.0000
  Ti  Ti52      1.0  0.53358  0.13886  0.16556  1.0000
  O   O95       1.0  0.51749  0.03424  0.16196  1.0000
  O   O96       1.0  0.49501  0.22467  0.16362  1.0000
  O   O97       1.0  0.10651  0.28603  0.16635  1.0000
  O   O98       1.0  0.90757  0.47112  0.16164  1.0000
  Ti  Ti53      1.0  0.48035  0.37201  0.16516  1.0000
  Ti  Ti54      1.0  0.47705  0.12170  0.16174  1.0000
  O   O99       1.0  0.46013  0.02286  0.16831  1.0000
  O   O100      1.0  0.43757  0.21169  0.16976  1.0000
  O   O101      1.0  0.04787  0.26675  0.17068  1.0000
  O   O102      1.0  0.85127  0.46193  0.16578  1.0000
  Ti  Ti55      1.0  0.41848  0.37087  0.16870  1.0000
  Ti  Ti56      1.0  0.41954  0.11773  0.16562  1.0000
  O   O103      1.0  0.40314  0.00680  0.17111  1.0000
  O   O104      1.0  0.38095  0.19333  0.17095  1.0000
  O   O105      1.0  0.99135  0.24989  0.17444  1.0000
  O   O106      1.0  0.79465  0.44735  0.16784  1.0000
  Ti  Ti57      1.0  0.36426  0.34082  0.17570  1.0000
  Ti  Ti58      1.0  0.36426  0.09170  0.17379  1.0000
  O   O107      1.0  0.34674  0.49280  0.17560  1.0000
  O   O108      1.0  0.32482  0.18865  0.17694  1.0000
  O   O109      1.0  0.93303  0.24569  0.17552  1.0000
  O   O110      1.0  0.73738  0.43148  0.17291  1.0000
  Ti  Ti59      1.0  0.30340  0.33886  0.17621  1.0000
  Ti  Ti60      1.0  0.30648  0.09271  0.17658  1.0000
  O   O111      1.0  0.28941  0.48461  0.18449  1.0000
  O   O112      1.0  0.26671  0.17080  0.18000  1.0000
  O   O113      1.0  0.87749  0.23077  0.17984  1.0000
  O   O114      1.0  0.68053  0.40871  0.17657  1.0000
  Ti  Ti61      1.0  0.24589  0.34017  0.18143  1.0000
  Ti  Ti62      1.0  0.25017  0.07414  0.18173  1.0000
  O   O115      1.0  0.23348  0.46905  0.18329  1.0000
  O   O116      1.0  0.21031  0.15480  0.18502  1.0000
  O   O117      1.0  0.82164  0.20878  0.18212  1.0000
  O   O118      1.0  0.62315  0.41372  0.18204  1.0000
  Ti  Ti63      1.0  0.19256  0.30520  0.18637  1.0000
  Ti  Ti64      1.0  0.19455  0.05450  0.18829  1.0000
  O   O119      1.0  0.17473  0.45620  0.18650  1.0000
  O   O120      1.0  0.15335  0.14306  0.19136  1.0000
  O   O121      1.0  0.76467  0.19342  0.18796  1.0000
  O   O122      1.0  0.56609  0.38765  0.18479  1.0000
  Ti  Ti65      1.0  0.13626  0.28581  0.19271  1.0000
  Ti  Ti66      1.0  0.13818  0.03576  0.18564  1.0000
  O   O123      1.0  0.11931  0.43509  0.19238  1.0000
  O   O124      1.0  0.09632  0.12674  0.19352  1.0000
  O   O125      1.0  0.70822  0.18476  0.19146  1.0000
  O   O126      1.0  0.50900  0.37684  0.18892  1.0000
  Ti  Ti67      1.0  0.07731  0.26306  0.19488  1.0000
  Ti  Ti68      1.0  0.07722  0.03008  0.19737  1.0000
  O   O127      1.0  0.06048  0.41730  0.19570  1.0000
  O   O128      1.0  0.03949  0.10491  0.19567  1.0000
  O   O129      1.0  0.65216  0.16174  0.19382  1.0000
  O   O130      1.0  0.44945  0.36840  0.19400  1.0000
  Ti  Ti69      1.0  0.01893  0.25703  0.19887  1.0000
  Ti  Ti70      1.0  0.02437  0.99777  0.19740  1.0000
  O   O131      1.0  0.00281  0.40462  0.19847  1.0000
  O   O132      1.0  0.98412  0.09534  0.19994  1.0000
  O   O133      1.0  0.59553  0.14901  0.19949  1.0000
  O   O134      1.0  0.39430  0.35931  0.19892  1.0000
  Ti  Ti71      1.0  0.96355  0.24810  0.20149  1.0000
  Ti  Ti72      1.0  0.96631  0.48826  0.20371  1.0000
  O   O135      1.0  0.95078  0.39102  0.19914  1.0000
  O   O136      1.0  0.92617  0.07863  0.20242  1.0000
  O   O137      1.0  0.53774  0.14906  0.20231  1.0000
  O   O138      1.0  0.33954  0.32288  0.20465  1.0000
  Ti  Ti73      1.0  0.90470  0.23407  0.20631  1.0000
  Ti  Ti74      1.0  0.90617  0.48103  0.20347  1.0000
  O   O139      1.0  0.89221  0.37332  0.20332  1.0000
  O   O140      1.0  0.86886  0.06772  0.20725  1.0000
  O   O141      1.0  0.47950  0.13209  0.20719  1.0000
  O   O142      1.0  0.28092  0.30954  0.20513  1.0000
  Ti  Ti75      1.0  0.84930  0.21561  0.20959  1.0000
  Ti  Ti76      1.0  0.85059  0.46314  0.20822  1.0000
  O   O143      1.0  0.83583  0.36079  0.21256  1.0000
  O   O144      1.0  0.81242  0.05136  0.21231  1.0000
  O   O145      1.0  0.42202  0.11529  0.21206  1.0000
  O   O146      1.0  0.22026  0.30980  0.20936  1.0000
  Ti  Ti77      1.0  0.79530  0.19307  0.21285  1.0000
  Ti  Ti78      1.0  0.79429  0.44428  0.20820  1.0000
  O   O147      1.0  0.77755  0.34744  0.21008  1.0000
  O   O148      1.0  0.75490  0.03197  0.21406  1.0000
  O   O149      1.0  0.36667  0.09440  0.21579  1.0000
  O   O150      1.0  0.17137  0.27931  0.21545  1.0000
  Ti  Ti79      1.0  0.73886  0.17935  0.21400  1.0000
  Ti  Ti80      1.0  0.73867  0.43586  0.21530  1.0000
  O   O151      1.0  0.72304  0.33573  0.21963  1.0000
  O   O152      1.0  0.69904  0.02189  0.21765  1.0000
  O   O153      1.0  0.30764  0.09087  0.22125  1.0000
  O   O154      1.0  0.11090  0.27982  0.22064  1.0000
  Ti  Ti81      1.0  0.68129  0.17004  0.21582  1.0000
  Ti  Ti82      1.0  0.68453  0.41101  0.21897  1.0000
  O   O155      1.0  0.66514  0.32089  0.21986  1.0000
  O   O156      1.0  0.64353  0.99629  0.22346  1.0000
  O   O157      1.0  0.25075  0.06169  0.22488  1.0000
  O   O158      1.0  0.05135  0.26080  0.22387  1.0000
  Ti  Ti83      1.0  0.62460  0.16255  0.22690  1.0000
  Ti  Ti84      1.0  0.62690  0.41540  0.22411  1.0000
  O   O159      1.0  0.60656  0.30346  0.22576  1.0000
  O   O160      1.0  0.58554  0.49682  0.22511  1.0000
  O   O161      1.0  0.19708  0.04309  0.22718  1.0000
  O   O162      1.0  0.99342  0.24973  0.22706  1.0000
  Ti  Ti85      1.0  0.56719  0.14599  0.23085  1.0000
  Ti  Ti86      1.0  0.56787  0.40453  0.22677  1.0000
  O   O163      1.0  0.55078  0.29167  0.22703  1.0000
  O   O164      1.0  0.52769  0.48534  0.23245  1.0000
  O   O165      1.0  0.14078  0.03267  0.23336  1.0000
  O   O166      1.0  0.93948  0.22939  0.23043  1.0000
  Ti  Ti87      1.0  0.50946  0.13106  0.23475  1.0000
  Ti  Ti88      1.0  0.51249  0.37635  0.22838  1.0000
  O   O167      1.0  0.49363  0.27975  0.23057  1.0000
  O   O168      1.0  0.47098  0.46893  0.23107  1.0000
  O   O169      1.0  0.08367  0.02600  0.23540  1.0000
  O   O170      1.0  0.87994  0.22198  0.23163  1.0000
  Ti  Ti89      1.0  0.45186  0.12267  0.22938  1.0000
  Ti  Ti90      1.0  0.45428  0.36918  0.23158  1.0000
  O   O171      1.0  0.43506  0.26806  0.23630  1.0000
  O   O172      1.0  0.41638  0.45160  0.23789  1.0000
  O   O173      1.0  0.02418  0.49433  0.23951  1.0000
  O   O174      1.0  0.82381  0.21054  0.23809  1.0000
  Ti  Ti91      1.0  0.39355  0.10073  0.24184  1.0000
  Ti  Ti92      1.0  0.39702  0.35181  0.24257  1.0000
  O   O175      1.0  0.38100  0.24251  0.24356  1.0000
  O   O176      1.0  0.35791  0.44155  0.24404  1.0000
  O   O177      1.0  0.96733  0.48197  0.24253  1.0000
  O   O178      1.0  0.77171  0.18411  0.24153  1.0000
  Ti  Ti93      1.0  0.33849  0.07553  0.24571  1.0000
  Ti  Ti94      1.0  0.34018  0.33320  0.24230  1.0000
  O   O179      1.0  0.32423  0.23452  0.24839  1.0000
  O   O180      1.0  0.30032  0.41708  0.24628  1.0000
  O   O181      1.0  0.91050  0.47914  0.24448  1.0000
  O   O182      1.0  0.71224  0.17380  0.24485  1.0000
  Ti  Ti95      1.0  0.28046  0.07491  0.24487  1.0000
  Ti  Ti96      1.0  0.28458  0.31330  0.24493  1.0000
  O   O183      1.0  0.26392  0.21708  0.24976  1.0000
  O   O184      1.0  0.24506  0.40268  0.25124  1.0000
  O   O185      1.0  0.85371  0.46039  0.25153  1.0000
  O   O186      1.0  0.65418  0.17094  0.24782  1.0000
  Ti  Ti97      1.0  0.22560  0.05259  0.25679  1.0000
  Ti  Ti98      1.0  0.22734  0.30605  0.25390  1.0000
  O   O187      1.0  0.21052  0.20031  0.25544  1.0000
  O   O188      1.0  0.18504  0.39389  0.25525  1.0000
  O   O189      1.0  0.79652  0.44962  0.25322  1.0000
  O   O190      1.0  0.59979  0.13567  0.25251  1.0000
  Ti  Ti99      1.0  0.16739  0.04294  0.26074  1.0000
  Ti  Ti100     1.0  0.17082  0.28799  0.25875  1.0000
  O   O191      1.0  0.14996  0.18701  0.26144  1.0000
  O   O192      1.0  0.12973  0.37547  0.25689  1.0000
  O   O193      1.0  0.74018  0.44392  0.25691  1.0000
  O   O194      1.0  0.54373  0.12784  0.25632  1.0000
  Ti  Ti101     1.0  0.11320  0.03252  0.25870  1.0000
  Ti  Ti102     1.0  0.11276  0.28651  0.25975  1.0000
  O   O195      1.0  0.09290  0.17517  0.26496  1.0000
  O   O196      1.0  0.07121  0.36585  0.26122  1.0000
  O   O197      1.0  0.68427  0.41516  0.25932  1.0000
  O   O198      1.0  0.48599  0.12466  0.26092  1.0000
  Ti  Ti103     1.0  0.05596  0.00995  0.26840  1.0000
  Ti  Ti104     1.0  0.05515  0.25804  0.26231  1.0000
  O   O199      1.0  0.03756  0.15780  0.26514  1.0000
  O   O200      1.0  0.01369  0.34861  0.26131  1.0000
  O   O201      1.0  0.62644  0.40447  0.26673  1.0000
  O   O202      1.0  0.42904  0.09824  0.26530  1.0000
  Ti  Ti105     1.0  0.99829  0.50393  0.26739  1.0000
  Ti  Ti106     1.0  0.00017  0.24516  0.26783  1.0000
  O   O203      1.0  0.98201  0.14276  0.27117  1.0000
  O   O204      1.0  0.95911  0.32645  0.27053  1.0000
  O   O205      1.0  0.57081  0.39673  0.26984  1.0000
  O   O206      1.0  0.36904  0.09581  0.27296  1.0000
  Ti  Ti107     1.0  0.94325  0.47402  0.27297  1.0000
  Ti  Ti108     1.0  0.94281  0.22936  0.27109  1.0000
  O   O207      1.0  0.92363  0.13150  0.27351  1.0000
  O   O208      1.0  0.90195  0.32413  0.27493  1.0000
  O   O209      1.0  0.51550  0.37841  0.27174  1.0000
  O   O210      1.0  0.31457  0.07232  0.27130  1.0000
  Ti  Ti109     1.0  0.88833  0.47632  0.27466  1.0000
  Ti  Ti110     1.0  0.88410  0.22847  0.27752  1.0000
  O   O211      1.0  0.86616  0.12387  0.27740  1.0000
  O   O212      1.0  0.84459  0.31165  0.27847  1.0000
  O   O213      1.0  0.45669  0.36348  0.27746  1.0000
  O   O214      1.0  0.25828  0.04922  0.27742  1.0000
  Ti  Ti111     1.0  0.82752  0.45600  0.27555  1.0000
  Ti  Ti112     1.0  0.82731  0.20603  0.28264  1.0000
  O   O215      1.0  0.81130  0.10058  0.28564  1.0000
  O   O216      1.0  0.78613  0.29393  0.28281  1.0000
  O   O217      1.0  0.39990  0.34858  0.28220  1.0000
  O   O218      1.0  0.20007  0.04158  0.28226  1.0000
  Ti  Ti113     1.0  0.77288  0.43644  0.28111  1.0000
  Ti  Ti114     1.0  0.77250  0.18504  0.28630  1.0000
  O   O219      1.0  0.75373  0.08281  0.28387  1.0000
  O   O220      1.0  0.73070  0.27537  0.28417  1.0000
  O   O221      1.0  0.34434  0.34035  0.28731  1.0000
  O   O222      1.0  0.14082  0.03025  0.28621  1.0000
  Ti  Ti115     1.0  0.71781  0.41120  0.28428  1.0000
  Ti  Ti116     1.0  0.71410  0.16455  0.28340  1.0000
  O   O223      1.0  0.69728  0.06964  0.28940  1.0000
  O   O224      1.0  0.67616  0.26148  0.28600  1.0000
  O   O225      1.0  0.28660  0.32175  0.28974  1.0000
  O   O226      1.0  0.08664  0.00724  0.29138  1.0000
  Ti  Ti117     1.0  0.65827  0.40210  0.28708  1.0000
  Ti  Ti118     1.0  0.65895  0.15281  0.29228  1.0000
  O   O227      1.0  0.64094  0.05540  0.29478  1.0000
  O   O228      1.0  0.61844  0.24851  0.29231  1.0000
  O   O229      1.0  0.22751  0.30039  0.29390  1.0000
  O   O230      1.0  0.02810  0.49466  0.29259  1.0000
  Ti  Ti119     1.0  0.60072  0.39171  0.29331  1.0000
  Ti  Ti120     1.0  0.60238  0.14515  0.29916  1.0000
  O   O231      1.0  0.58504  0.04239  0.29652  1.0000
  O   O232      1.0  0.56303  0.23575  0.29694  1.0000
  O   O233      1.0  0.17102  0.27691  0.29911  1.0000
  O   O234      1.0  0.97362  0.47889  0.29546  1.0000
  Ti  Ti121     1.0  0.54470  0.37094  0.29705  1.0000
  Ti  Ti122     1.0  0.54636  0.11892  0.30316  1.0000
  O   O235      1.0  0.52655  0.03174  0.30047  1.0000
  O   O236      1.0  0.50585  0.21866  0.29924  1.0000
  O   O237      1.0  0.11351  0.28664  0.30283  1.0000
  O   O238      1.0  0.91732  0.46762  0.30085  1.0000
  Ti  Ti123     1.0  0.48884  0.36757  0.29870  1.0000
  Ti  Ti124     1.0  0.48737  0.12049  0.30447  1.0000
  O   O239      1.0  0.47002  0.01646  0.30184  1.0000
  O   O240      1.0  0.44976  0.20350  0.30803  1.0000
  O   O241      1.0  0.05853  0.25757  0.30522  1.0000
  O   O242      1.0  0.85733  0.45699  0.30354  1.0000
  Ti  Ti125     1.0  0.43291  0.34970  0.30532  1.0000
  Ti  Ti126     1.0  0.43215  0.10120  0.30328  1.0000
  O   O243      1.0  0.41487  0.50104  0.30687  1.0000
  O   O244      1.0  0.39004  0.19602  0.30855  1.0000
  O   O245      1.0  0.00083  0.25557  0.31105  1.0000
  O   O246      1.0  0.80004  0.44776  0.30732  1.0000
  Ti  Ti127     1.0  0.37475  0.33638  0.31189  1.0000
  Ti  Ti128     1.0  0.37354  0.09498  0.31262  1.0000
  O   O247      1.0  0.35610  0.48708  0.31861  1.0000
  O   O248      1.0  0.33202  0.17675  0.31620  1.0000
  O   O249      1.0  0.94400  0.23187  0.31573  1.0000
  O   O250      1.0  0.74393  0.43021  0.30992  1.0000
  Ti  Ti129     1.0  0.31805  0.32056  0.31253  1.0000
  Ti  Ti130     1.0  0.31475  0.06694  0.31792  1.0000
  O   O251      1.0  0.30045  0.46248  0.31896  1.0000
  O   O252      1.0  0.27492  0.15986  0.31729  1.0000
  O   O253      1.0  0.88591  0.22675  0.31747  1.0000
  O   O254      1.0  0.68764  0.41354  0.31340  1.0000
  Ti  Ti131     1.0  0.26049  0.30608  0.31472  1.0000
  Ti  Ti132     1.0  0.25843  0.05292  0.31716  1.0000
  O   O255      1.0  0.24038  0.44961  0.32081  1.0000
  O   O256      1.0  0.22176  0.14260  0.32186  1.0000
  O   O257      1.0  0.83118  0.20470  0.32206  1.0000
  O   O258      1.0  0.63168  0.39729  0.31913  1.0000
  Ti  Ti133     1.0  0.20043  0.29442  0.32403  1.0000
  Ti  Ti134     1.0  0.20235  0.04110  0.32704  1.0000
  O   O259      1.0  0.18603  0.43573  0.32495  1.0000
  O   O260      1.0  0.16312  0.12454  0.32632  1.0000
  O   O261      1.0  0.76887  0.19567  0.32468  1.0000
  O   O262      1.0  0.57515  0.37524  0.32568  1.0000
  Ti  Ti135     1.0  0.14321  0.27803  0.33022  1.0000
  Ti  Ti136     1.0  0.14376  0.03103  0.33057  1.0000
  O   O263      1.0  0.12878  0.42041  0.32957  1.0000
  O   O264      1.0  0.10491  0.10851  0.33285  1.0000
  O   O265      1.0  0.71357  0.17772  0.32904  1.0000
  O   O266      1.0  0.51722  0.38053  0.32579  1.0000
  Ti  Ti137     1.0  0.08557  0.26023  0.32814  1.0000
  Ti  Ti138     1.0  0.08683  0.00764  0.33283  1.0000
  O   O267      1.0  0.07263  0.40549  0.33089  1.0000
  O   O268      1.0  0.04848  0.10119  0.33385  1.0000
  O   O269      1.0  0.65663  0.16891  0.33382  1.0000
  O   O270      1.0  0.46232  0.36843  0.33010  1.0000
  Ti  Ti139     1.0  0.02910  0.24127  0.33725  1.0000
  Ti  Ti140     1.0  0.03068  0.50093  0.33797  1.0000
  O   O271      1.0  0.01341  0.39077  0.33686  1.0000
  O   O272      1.0  0.99257  0.07977  0.34029  1.0000
  O   O273      1.0  0.60433  0.13991  0.33822  1.0000
  O   O274      1.0  0.40431  0.35381  0.33654  1.0000
  Ti  Ti141     1.0  0.97008  0.25044  0.33804  1.0000
  Ti  Ti142     1.0  0.97682  0.47983  0.33871  1.0000
  O   O275      1.0  0.95671  0.38394  0.34507  1.0000
  O   O276      1.0  0.93664  0.08169  0.34032  1.0000
  O   O277      1.0  0.54730  0.12720  0.34155  1.0000
  O   O278      1.0  0.34993  0.32588  0.34086  1.0000
  Ti  Ti143     1.0  0.91310  0.22201  0.34292  1.0000
  Ti  Ti144     1.0  0.91705  0.48216  0.35243  1.0000
  O   O279      1.0  0.89866  0.37915  0.34798  1.0000
  O   O280      1.0  0.87702  0.06066  0.34190  1.0000
  O   O281      1.0  0.49308  0.10583  0.34207  1.0000
  O   O282      1.0  0.28855  0.31687  0.34463  1.0000
  Ti  Ti145     1.0  0.85660  0.21463  0.35035  1.0000
  Ti  Ti146     1.0  0.86125  0.46320  0.34143  1.0000
  O   O283      1.0  0.84075  0.36491  0.35060  1.0000
  O   O284      1.0  0.82237  0.04686  0.34656  1.0000
  O   O285      1.0  0.43531  0.09302  0.34765  1.0000
  O   O286      1.0  0.23342  0.29251  0.34503  1.0000
  Ti  Ti147     1.0  0.80258  0.19064  0.35255  1.0000
  Ti  Ti148     1.0  0.80252  0.45539  0.34586  1.0000
  O   O287      1.0  0.78695  0.34691  0.34964  1.0000
  O   O288      1.0  0.76411  0.03533  0.35376  1.0000
  O   O289      1.0  0.37802  0.08709  0.35376  1.0000
  O   O290      1.0  0.17499  0.27950  0.35479  1.0000
  Ti  Ti149     1.0  0.74158  0.18291  0.35263  1.0000
  Ti  Ti150     1.0  0.74921  0.41474  0.34930  1.0000
  O   O291      1.0  0.72829  0.32715  0.35799  1.0000
  O   O292      1.0  0.70602  0.01458  0.35833  1.0000
  O   O293      1.0  0.32049  0.06313  0.35695  1.0000
  O   O294      1.0  0.11857  0.26194  0.35748  1.0000
  Ti  Ti151     1.0  0.68860  0.16368  0.36033  1.0000
  Ti  Ti152     1.0  0.68708  0.42078  0.35094  1.0000
  O   O295      1.0  0.67426  0.31687  0.36095  1.0000
  O   O296      1.0  0.65009  0.50202  0.35916  1.0000
  O   O297      1.0  0.26442  0.05199  0.36166  1.0000
  O   O298      1.0  0.05992  0.25033  0.35880  1.0000
  Ti  Ti153     1.0  0.63378  0.13940  0.36625  1.0000
  Ti  Ti154     1.0  0.63367  0.39468  0.35791  1.0000
  O   O299      1.0  0.61541  0.29584  0.36592  1.0000
  O   O300      1.0  0.59654  0.48645  0.36494  1.0000
  O   O301      1.0  0.20452  0.04214  0.36458  1.0000
  O   O302      1.0  0.00364  0.23668  0.36645  1.0000
  Ti  Ti155     1.0  0.57740  0.13218  0.37220  1.0000
  Ti  Ti156     1.0  0.57787  0.37840  0.36373  1.0000
  O   O303      1.0  0.55922  0.28413  0.37055  1.0000
  O   O304      1.0  0.53654  0.47215  0.36893  1.0000
  O   O305      1.0  0.14874  0.02972  0.37167  1.0000
  O   O306      1.0  0.94806  0.22251  0.36991  1.0000
  Ti  Ti157     1.0  0.51731  0.12667  0.37038  1.0000
  Ti  Ti158     1.0  0.51793  0.37640  0.36785  1.0000
  O   O307      1.0  0.50181  0.27052  0.37249  1.0000
  O   O308      1.0  0.48173  0.46004  0.37210  1.0000
  O   O309      1.0  0.09368  0.00602  0.37302  1.0000
  O   O310      1.0  0.89114  0.20634  0.37158  1.0000
  Ti  Ti159     1.0  0.46427  0.09748  0.37572  1.0000
  Ti  Ti160     1.0  0.46202  0.35674  0.36952  1.0000
  O   O311      1.0  0.44661  0.25535  0.37683  1.0000
  O   O312      1.0  0.42576  0.45021  0.37395  1.0000
  O   O313      1.0  0.03613  0.49486  0.37687  1.0000
  O   O314      1.0  0.83453  0.19092  0.37706  1.0000
  Ti  Ti161     1.0  0.40998  0.09175  0.37943  1.0000
  Ti  Ti162     1.0  0.40592  0.34822  0.37680  1.0000
  O   O315      1.0  0.39059  0.24702  0.38032  1.0000
  O   O316      1.0  0.36670  0.43220  0.38084  1.0000
  O   O317      1.0  0.97589  0.48745  0.38168  1.0000
  O   O318      1.0  0.77593  0.20245  0.37711  1.0000
  Ti  Ti163     1.0  0.35298  0.08062  0.38440  1.0000
  Ti  Ti164     1.0  0.34867  0.32892  0.38037  1.0000
  O   O319      1.0  0.33566  0.22084  0.38543  1.0000
  O   O320      1.0  0.30984  0.41152  0.38513  1.0000
  O   O321      1.0  0.91905  0.47672  0.38909  1.0000
  O   O322      1.0  0.71969  0.16752  0.38294  1.0000
  Ti  Ti165     1.0  0.29723  0.05905  0.38865  1.0000
  Ti  Ti166     1.0  0.29233  0.31667  0.38253  1.0000
  O   O323      1.0  0.27511  0.20505  0.38569  1.0000
  O   O324      1.0  0.25397  0.38601  0.39023  1.0000
  O   O325      1.0  0.66268  0.14840  0.38672  1.0000
  Ti  Ti167     1.0  0.24197  0.04020  0.39000  1.0000
  Ti  Ti168     1.0  0.23582  0.29139  0.38238  1.0000
  O   O326      1.0  0.21986  0.19153  0.39661  1.0000
  O   O327      1.0  0.19825  0.38253  0.39051  1.0000
  O   O328      1.0  0.60728  0.12568  0.39347  1.0000
  Ti  Ti169     1.0  0.18307  0.02080  0.39866  1.0000
  Ti  Ti170     1.0  0.17944  0.28113  0.39403  1.0000
  O   O329      1.0  0.16525  0.17450  0.39940  1.0000
  O   O330      1.0  0.13922  0.35997  0.39889  1.0000
  O   O331      1.0  0.54804  0.12813  0.39399  1.0000
  Ti  Ti171     1.0  0.12576  0.00763  0.40409  1.0000
  Ti  Ti172     1.0  0.12250  0.25269  0.39700  1.0000
  O   O332      1.0  0.10354  0.15795  0.39998  1.0000
  O   O333      1.0  0.08324  0.34744  0.40106  1.0000
  O   O334      1.0  0.49214  0.11481  0.39835  1.0000
  Ti  Ti173     1.0  0.06485  0.49349  0.40454  1.0000
  Ti  Ti174     1.0  0.06303  0.25463  0.39611  1.0000
  O   O335      1.0  0.05108  0.15039  0.40950  1.0000
  O   O336      1.0  0.02597  0.33845  0.40432  1.0000
  O   O337      1.0  0.43805  0.09754  0.40236  1.0000
  Ti  Ti175     1.0  0.00656  0.48522  0.40773  1.0000
  Ti  Ti176     1.0  0.00467  0.24772  0.40560  1.0000
  O   O338      1.0  0.99119  0.13295  0.41031  1.0000
  O   O339      1.0  0.96867  0.32830  0.41136  1.0000
  O   O340      1.0  0.38256  0.08086  0.40524  1.0000
  Ti  Ti177     1.0  0.94937  0.49421  0.41183  1.0000
  Ti  Ti178     1.0  0.95110  0.19764  0.40909  1.0000
  O   O341      1.0  0.93432  0.11540  0.41807  1.0000
  O   O342      1.0  0.32585  0.06553  0.41088  1.0000
  O   O343      1.0  0.97487  0.10208  0.05855  1.0000
  O   O344      1.0  0.58078  0.17028  0.05962  1.0000
  O   O345      1.0  0.63993  0.16509  0.05370  1.0000
  O   O346      1.0  0.69865  0.17145  0.05022  1.0000
  O   O347      1.0  0.75602  0.19963  0.04940  1.0000
  O   O348      1.0  0.81191  0.21268  0.04567  1.0000
  O   O349      1.0  0.87136  0.22153  0.04062  1.0000
  O   O350      1.0  0.92689  0.24686  0.03910  1.0000
  O   O351      1.0  0.26862  0.05239  0.41437  1.0000
  O   O352      1.0  0.21456  0.01890  0.41832  1.0000
  O   O353      1.0  0.15666  0.01530  0.42603  1.0000
  O   O354      1.0  0.09553  0.50689  0.42698  1.0000
  O   O355      1.0  0.04084  0.48993  0.42984  1.0000
  O   O356      1.0  0.98224  0.48262  0.43392  1.0000
  H   H1        1.0  0.00972  0.42448  0.07077  1.0000
  H   H2        1.0  0.99774  0.33605  0.07099  1.0000
  O   O357      1.0  0.99831  0.39626  0.05884  1.0000
  H   H3        1.0  0.89883  0.29981  0.39564  1.0000
  H   H4        1.0  0.91326  0.37862  0.40512  1.0000
  O   O358      1.0  0.90828  0.32095  0.41071  1.0000
  H   H5        1.0  0.86425  0.42183  0.40279  1.0000
  H   H6        1.0  0.86193  0.53220  0.39648  1.0000
  O   O359      1.0  0.85643  0.47811  0.39043  1.0000
  H   H7        1.0  0.76281  0.64766  0.41269  1.0000
  H   H8        1.0  0.75145  0.60912  0.43741  1.0000
  O   O360      1.0  0.76727  0.58674  0.42271  1.0000
  H   H9        1.0  0.72885  0.47082  0.39977  1.0000
  H   H10       1.0  0.75505  0.49996  0.39916  1.0000
  O   O361      1.0  0.74908  0.44172  0.39487  1.0000
  H   H11       1.0  0.74864  0.10505  0.42765  1.0000
  H   H12       1.0  0.76888  0.01627  0.44545  1.0000
  O   O362      1.0  0.75021  0.04144  0.43624  1.0000
  H   H13       1.0  0.64103  0.46695  0.41250  1.0000
  H   H14       1.0  0.65596  0.35644  0.41434  1.0000
  O   O363      1.0  0.63862  0.40435  0.40631  1.0000
  H   H15       1.0  0.57859  0.32672  0.42274  1.0000
  H   H16       1.0  0.60485  0.37303  0.41532  1.0000
  O   O364      1.0  0.58505  0.37829  0.41275  1.0000
  H   H17       1.0  0.53370  0.34340  0.42754  1.0000
  H   H18       1.0  0.50701  0.43979  0.42091  1.0000
  O   O365      1.0  0.51868  0.37571  0.41265  1.0000
  H   H19       1.0  0.48054  0.32668  0.42820  1.0000
  H   H20       1.0  0.44787  0.36443  0.42460  1.0000
  O   O366      1.0  0.46546  0.37290  0.41521  1.0000
  H   H21       1.0  0.41972  0.29837  0.43190  1.0000
  H   H22       1.0  0.39257  0.39772  0.43854  1.0000
  O   O367      1.0  0.40891  0.37032  0.42632  1.0000
  H   H23       1.0  0.34049  0.27585  0.42896  1.0000
  H   H24       1.0  0.35112  0.35483  0.44189  1.0000
  O   O368      1.0  0.35392  0.30924  0.42599  1.0000
  H   H25       1.0  0.29697  0.36721  0.43922  1.0000
  H   H26       1.0  0.28503  0.26980  0.43416  1.0000
  O   O369      1.0  0.29912  0.30526  0.42820  1.0000
  H   H27       1.0  0.26168  0.16583  0.43300  1.0000
  H   H28       1.0  0.24559  0.26993  0.45173  1.0000
  O   O370      1.0  0.26368  0.21564  0.44732  1.0000
  H   H29       1.0  0.18857  0.22192  0.45101  1.0000
  H   H30       1.0  0.18902  0.33948  0.44853  1.0000
  O   O371      1.0  0.18091  0.28898  0.43962  1.0000
  H   H31       1.0  0.12703  0.22258  0.45235  1.0000
  H   H32       1.0  0.14295  0.29349  0.44125  1.0000
  O   O372      1.0  0.12394  0.28045  0.43910  1.0000
  H   H33       1.0  0.03039  0.23039  0.45276  1.0000
  H   H34       1.0  0.99844  0.29198  0.46260  1.0000
  O   O373      1.0  0.01094  0.23563  0.45043  1.0000
  H   H35       1.0  0.96146  0.18435  0.46744  1.0000
  H   H36       1.0  0.92831  0.24573  0.45785  1.0000
  O   O374      1.0  0.94783  0.24259  0.45491  1.0000
  H   H37       1.0  0.04631  0.21411  0.07290  1.0000
  H   H38       1.0  0.06661  0.26644  0.07650  1.0000
  O   O375      1.0  0.04713  0.27712  0.08037  1.0000
  H   H39       1.0  0.09371  0.39006  0.08398  1.0000
  H   H40       1.0  0.10791  0.29691  0.06128  1.0000
  O   O376      1.0  0.09716  0.32024  0.08085  1.0000
  H   H41       1.0  0.16792  0.19266  0.07812  1.0000
  H   H42       1.0  0.17609  0.28972  0.07063  1.0000
  O   O377      1.0  0.16128  0.26539  0.07709  1.0000
  H   H43       1.0  0.20395  0.38073  0.05629  1.0000
  H   H44       1.0  0.21384  0.26039  0.05472  1.0000
  O   O378      1.0  0.20746  0.32286  0.06923  1.0000
  H   H45       1.0  0.27286  0.28929  0.05427  1.0000
  H   H46       1.0  0.25477  0.19028  0.02886  1.0000
  O   O379      1.0  0.27599  0.33994  0.06665  1.0000
  H   H47       1.0  0.30817  0.32396  0.06077  1.0000
  H   H48       1.0  0.33769  0.25944  0.05785  1.0000
  O   O380      1.0  0.32711  0.32598  0.06480  1.0000
  H   H49       1.0  0.36943  0.41632  0.04762  1.0000
  H   H50       1.0  0.40284  0.36533  0.05082  1.0000
  O   O381      1.0  0.38433  0.37220  0.05936  1.0000
  H   H51       1.0  0.42906  0.44182  0.04217  1.0000
  H   H52       1.0  0.45025  0.33465  0.03797  1.0000
  O   O382      1.0  0.43557  0.37244  0.05120  1.0000
  H   H53       1.0  0.48775  0.40468  0.03575  1.0000
  H   H54       1.0  0.50460  0.29501  0.04961  1.0000
  O   O383      1.0  0.50386  0.36600  0.04887  1.0000
  H   H55       1.0  0.53695  0.37655  0.04182  1.0000
  H   H56       1.0  0.56938  0.33935  0.03513  1.0000
  O   O384      1.0  0.55466  0.39363  0.04573  1.0000
  H   H57       1.0  0.62796  0.43768  0.03137  1.0000
  H   H58       1.0  0.59356  0.51322  0.03814  1.0000
  O   O385      1.0  0.60907  0.44209  0.03920  1.0000
  H   H59       1.0  0.66371  0.53776  0.04076  1.0000
  H   H60       1.0  0.67694  0.43999  0.02212  1.0000
  O   O386      1.0  0.66520  0.46359  0.03865  1.0000
  H   H61       1.0  0.72315  0.46947  0.01852  1.0000
  H   H62       1.0  0.73615  0.34826  0.02189  1.0000
  O   O387      1.0  0.73226  0.41470  0.03112  1.0000
  H   H63       1.0  0.79936  0.34813  0.02244  1.0000
  H   H64       1.0  0.76857  0.40533  0.02705  1.0000
  O   O388      1.0  0.78601  0.41778  0.02466  1.0000
  H   H65       1.0  0.83151  0.52775  0.01829  1.0000
  H   H66       1.0  0.83593  0.00225  0.01214  1.0000
  O   O389      1.0  0.84509  0.45782  0.02379  1.0000
  H   H67       1.0  0.88371  0.45848  0.01731  1.0000
  H   H68       1.0  0.90621  0.88476  0.01778  1.0000
  O   O390      1.0  0.90365  0.44585  0.01964  1.0000
  H   H69       1.0  0.96722  0.39077  0.01612  1.0000
  H   H70       1.0  0.94142  0.47414  0.00720  1.0000
  O   O391      1.0  0.96266  0.96827  0.02055  1.0000
  H   H71       1.0  0.93711  0.37929  0.45112  1.0000
  H   H72       1.0  0.93230  0.88854  0.45543  1.0000
  O   O392      1.0  0.92942  0.45543  0.44794  1.0000
  H   H73       1.0  0.99026  0.22106  0.01101  1.0000
  H   H74       1.0  0.95823  0.25264  0.00846  1.0000
  O   O393      1.0  0.97291  0.25221  0.02145  1.0000
  Ti  Ti179     1.0  0.95380  0.73681  0.05918  1.0000
  Ti  Ti180     1.0  0.95836  0.50801  0.06286  1.0000
  O   O394      1.0  0.94069  0.89279  0.06049  1.0000
  O   O395      1.0  0.91904  0.57996  0.05889  1.0000
  O   O396      1.0  0.52768  0.65176  0.06425  1.0000
  Ti  Ti181     1.0  0.89588  0.73276  0.06184  1.0000
  Ti  Ti182     1.0  0.90476  0.97148  0.06916  1.0000
  O   O397      1.0  0.88203  0.88376  0.06777  1.0000
  O   O398      1.0  0.86009  0.56313  0.06280  1.0000
  O   O399      1.0  0.46741  0.64202  0.07068  1.0000
  Ti  Ti183     1.0  0.84037  0.70803  0.06535  1.0000
  Ti  Ti184     1.0  0.84468  0.97035  0.07345  1.0000
  O   O400      1.0  0.82459  0.86571  0.07049  1.0000
  O   O401      1.0  0.80542  0.54830  0.06902  1.0000
  O   O402      1.0  0.41371  0.62882  0.07347  1.0000
  Ti  Ti185     1.0  0.78333  0.70541  0.06791  1.0000
  Ti  Ti186     1.0  0.78822  0.94269  0.07933  1.0000
  O   O403      1.0  0.76748  0.85183  0.07395  1.0000
  O   O404      1.0  0.74727  0.53504  0.07363  1.0000
  O   O405      1.0  0.35724  0.61417  0.07871  1.0000
  Ti  Ti187     1.0  0.72820  0.69198  0.07497  1.0000
  Ti  Ti188     1.0  0.72786  0.93840  0.08076  1.0000
  O   O406      1.0  0.71214  0.83406  0.08135  1.0000
  O   O407      1.0  0.69072  0.52502  0.07585  1.0000
  O   O408      1.0  0.30284  0.57490  0.08276  1.0000
  Ti  Ti189     1.0  0.67426  0.66501  0.07933  1.0000
  Ti  Ti190     1.0  0.67073  0.91777  0.08653  1.0000
  O   O409      1.0  0.65309  0.82933  0.07763  1.0000
  O   O410      1.0  0.63347  0.51645  0.08465  1.0000
  O   O411      1.0  0.24598  0.57346  0.08762  1.0000
  Ti  Ti191     1.0  0.61174  0.66860  0.08491  1.0000
  Ti  Ti192     1.0  0.61133  0.92835  0.08309  1.0000
  O   O412      1.0  0.60048  0.81103  0.08454  1.0000
  O   O413      1.0  0.57411  0.00644  0.08819  1.0000
  O   O414      1.0  0.18781  0.56975  0.08931  1.0000
  O   O415      1.0  0.98578  0.74874  0.08463  1.0000
  Ti  Ti193     1.0  0.55747  0.65040  0.08595  1.0000
  Ti  Ti194     1.0  0.55731  0.89091  0.08836  1.0000
  O   O416      1.0  0.54178  0.79459  0.09559  1.0000
  O   O417      1.0  0.52049  0.98432  0.09113  1.0000
  O   O418      1.0  0.13250  0.54783  0.09109  1.0000
  O   O419      1.0  0.93265  0.72017  0.08892  1.0000
  Ti  Ti195     1.0  0.49876  0.62769  0.09084  1.0000
  Ti  Ti196     1.0  0.50019  0.88688  0.09645  1.0000
  O   O420      1.0  0.48531  0.77872  0.09760  1.0000
  O   O421      1.0  0.46319  0.97295  0.09252  1.0000
  O   O422      1.0  0.07371  0.52519  0.09854  1.0000
  O   O423      1.0  0.87279  0.72133  0.09465  1.0000
  Ti  Ti197     1.0  0.44473  0.62891  0.10182  1.0000
  Ti  Ti198     1.0  0.44349  0.87917  0.10233  1.0000
  O   O424      1.0  0.42689  0.77581  0.10221  1.0000
  O   O425      1.0  0.40447  0.96181  0.09508  1.0000
  O   O426      1.0  0.01795  0.49992  0.10041  1.0000
  O   O427      1.0  0.81562  0.70958  0.09833  1.0000
  Ti  Ti199     1.0  0.38771  0.60503  0.09967  1.0000
  Ti  Ti200     1.0  0.38432  0.86582  0.10533  1.0000
  O   O428      1.0  0.36929  0.76414  0.10664  1.0000
  O   O429      1.0  0.34537  0.95036  0.10135  1.0000
  O   O430      1.0  0.96042  0.99209  0.10472  1.0000
  O   O431      1.0  0.75980  0.69205  0.09950  1.0000
  Ti  Ti201     1.0  0.33034  0.59984  0.10327  1.0000
  Ti  Ti202     1.0  0.33010  0.84576  0.10615  1.0000
  O   O432      1.0  0.31151  0.74598  0.10806  1.0000
  O   O433      1.0  0.29231  0.93226  0.10718  1.0000
  O   O434      1.0  0.90328  0.98437  0.10790  1.0000
  O   O435      1.0  0.70318  0.67583  0.10372  1.0000
  Ti  Ti203     1.0  0.27617  0.57725  0.11072  1.0000
  Ti  Ti204     1.0  0.27086  0.83758  0.11425  1.0000
  O   O436      1.0  0.25899  0.72829  0.10752  1.0000
  O   O437      1.0  0.23150  0.91598  0.10926  1.0000
  O   O438      1.0  0.84728  0.96922  0.11288  1.0000
  O   O439      1.0  0.64882  0.66468  0.10848  1.0000
  Ti  Ti205     1.0  0.22102  0.56674  0.11178  1.0000
  Ti  Ti206     1.0  0.21500  0.81734  0.11879  1.0000
  O   O440      1.0  0.20300  0.71139  0.11813  1.0000
  O   O441      1.0  0.17694  0.89452  0.11834  1.0000
  O   O442      1.0  0.79063  0.93928  0.11635  1.0000
  O   O443      1.0  0.59101  0.65084  0.11374  1.0000
  Ti  Ti207     1.0  0.16253  0.55182  0.11446  1.0000
  Ti  Ti208     1.0  0.15855  0.80393  0.12143  1.0000
  O   O444      1.0  0.14191  0.69386  0.11993  1.0000
  O   O445      1.0  0.12185  0.88483  0.12301  1.0000
  O   O446      1.0  0.73184  0.93789  0.11925  1.0000
  O   O447      1.0  0.53796  0.62546  0.11766  1.0000
  Ti  Ti209     1.0  0.10481  0.53980  0.11587  1.0000
  Ti  Ti210     1.0  0.10216  0.78123  0.12622  1.0000
  O   O448      1.0  0.08516  0.68579  0.12126  1.0000
  O   O449      1.0  0.06484  0.87225  0.12368  1.0000
  O   O450      1.0  0.67578  0.92110  0.12374  1.0000
  O   O451      1.0  0.47878  0.61660  0.12436  1.0000
  Ti  Ti211     1.0  0.04978  0.52070  0.12843  1.0000
  Ti  Ti212     1.0  0.04387  0.76315  0.12851  1.0000
  O   O452      1.0  0.02979  0.66806  0.12701  1.0000
  O   O453      1.0  0.00698  0.85131  0.12602  1.0000
  O   O454      1.0  0.61925  0.91317  0.12561  1.0000
  O   O455      1.0  0.41927  0.59703  0.12844  1.0000
  Ti  Ti213     1.0  0.99352  0.51103  0.12877  1.0000
  Ti  Ti214     1.0  0.98695  0.75400  0.12109  1.0000
  O   O456      1.0  0.97300  0.64859  0.13122  1.0000
  O   O457      1.0  0.95018  0.83719  0.13136  1.0000
  O   O458      1.0  0.56316  0.89760  0.13031  1.0000
  O   O459      1.0  0.35845  0.58911  0.13261  1.0000
  Ti  Ti215     1.0  0.93680  0.98433  0.13616  1.0000
  Ti  Ti216     1.0  0.93087  0.73794  0.13313  1.0000
  O   O460      1.0  0.91534  0.63553  0.13440  1.0000
  O   O461      1.0  0.89594  0.82692  0.13446  1.0000
  O   O462      1.0  0.50203  0.89396  0.13465  1.0000
  O   O463      1.0  0.30307  0.58309  0.13667  1.0000
  Ti  Ti217     1.0  0.87861  0.97566  0.13582  1.0000
  Ti  Ti218     1.0  0.87540  0.72671  0.13364  1.0000
  O   O464      1.0  0.85975  0.61862  0.13998  1.0000
  O   O465      1.0  0.83510  0.81051  0.13967  1.0000
  O   O466      1.0  0.44420  0.87634  0.14127  1.0000
  O   O467      1.0  0.24939  0.56629  0.14117  1.0000
  Ti  Ti219     1.0  0.82170  0.95847  0.14257  1.0000
  Ti  Ti220     1.0  0.82185  0.70277  0.13743  1.0000
  O   O468      1.0  0.80334  0.60807  0.14009  1.0000
  O   O469      1.0  0.77862  0.79056  0.14355  1.0000
  O   O470      1.0  0.38929  0.85926  0.14466  1.0000
  O   O471      1.0  0.19189  0.55550  0.14305  1.0000
  Ti  Ti221     1.0  0.76198  0.94135  0.14716  1.0000
  Ti  Ti222     1.0  0.76419  0.69131  0.13901  1.0000
  O   O472      1.0  0.74602  0.57953  0.14317  1.0000
  O   O473      1.0  0.72506  0.77502  0.14515  1.0000
  O   O474      1.0  0.33342  0.84681  0.14970  1.0000
  O   O475      1.0  0.13109  0.54748  0.14614  1.0000
  Ti  Ti223     1.0  0.70755  0.91815  0.15125  1.0000
  Ti  Ti224     1.0  0.70690  0.67383  0.15050  1.0000
  O   O476      1.0  0.69019  0.57255  0.14892  1.0000
  O   O477      1.0  0.66698  0.76586  0.15006  1.0000
  O   O478      1.0  0.27311  0.83707  0.15236  1.0000
  O   O479      1.0  0.07879  0.51717  0.15267  1.0000
  Ti  Ti225     1.0  0.64863  0.90132  0.15259  1.0000
  Ti  Ti226     1.0  0.65129  0.64884  0.14628  1.0000
  O   O480      1.0  0.63176  0.56391  0.15354  1.0000
  O   O481      1.0  0.61104  0.75727  0.15187  1.0000
  O   O482      1.0  0.21978  0.81530  0.15758  1.0000
  O   O483      1.0  0.01890  0.50903  0.15740  1.0000
  Ti  Ti227     1.0  0.59378  0.89790  0.15434  1.0000
  Ti  Ti228     1.0  0.59219  0.66144  0.15573  1.0000
  O   O484      1.0  0.57401  0.55381  0.16239  1.0000
  O   O485      1.0  0.55313  0.74734  0.15643  1.0000
  O   O486      1.0  0.16302  0.79134  0.16097  1.0000
  O   O487      1.0  0.96465  0.98951  0.15964  1.0000
  Ti  Ti229     1.0  0.53619  0.88388  0.15725  1.0000
  Ti  Ti230     1.0  0.53115  0.64883  0.15468  1.0000
  O   O488      1.0  0.51917  0.53626  0.16048  1.0000
  O   O489      1.0  0.49351  0.72612  0.16091  1.0000
  O   O490      1.0  0.10714  0.78915  0.16645  1.0000
  O   O491      1.0  0.90721  0.97759  0.16288  1.0000
  Ti  Ti231     1.0  0.47826  0.87651  0.16906  1.0000
  Ti  Ti232     1.0  0.47936  0.60877  0.16625  1.0000
  O   O492      1.0  0.45766  0.51940  0.16802  1.0000
  O   O493      1.0  0.43984  0.71416  0.16478  1.0000
  O   O494      1.0  0.04794  0.76834  0.16947  1.0000
  O   O495      1.0  0.85047  0.96305  0.16478  1.0000
  Ti  Ti233     1.0  0.42127  0.85669  0.17120  1.0000
  Ti  Ti234     1.0  0.41995  0.61979  0.16967  1.0000
  O   O496      1.0  0.40196  0.50983  0.17061  1.0000
  O   O497      1.0  0.38034  0.70840  0.17026  1.0000
  O   O498      1.0  0.99193  0.75614  0.17198  1.0000
  O   O499      1.0  0.79366  0.94427  0.17031  1.0000
  Ti  Ti235     1.0  0.36189  0.85474  0.17194  1.0000
  Ti  Ti236     1.0  0.36223  0.60616  0.17139  1.0000
  O   O500      1.0  0.34673  0.99423  0.17558  1.0000
  O   O501      1.0  0.32374  0.68809  0.17596  1.0000
  O   O502      1.0  0.93509  0.74345  0.17392  1.0000
  O   O503      1.0  0.73570  0.93502  0.17353  1.0000
  Ti  Ti237     1.0  0.30582  0.83819  0.18131  1.0000
  Ti  Ti238     1.0  0.30663  0.58098  0.17551  1.0000
  O   O504      1.0  0.28863  0.98359  0.18040  1.0000
  O   O505      1.0  0.26707  0.67261  0.18266  1.0000
  O   O506      1.0  0.87808  0.73140  0.17550  1.0000
  O   O507      1.0  0.68162  0.90642  0.17942  1.0000
  Ti  Ti239     1.0  0.24884  0.81964  0.18268  1.0000
  Ti  Ti240     1.0  0.24967  0.57672  0.18059  1.0000
  O   O508      1.0  0.23429  0.96853  0.18531  1.0000
  O   O509      1.0  0.21121  0.65731  0.18350  1.0000
  O   O510      1.0  0.82062  0.70553  0.18226  1.0000
  O   O511      1.0  0.62108  0.90980  0.17967  1.0000
  Ti  Ti241     1.0  0.18894  0.80684  0.18675  1.0000
  Ti  Ti242     1.0  0.19278  0.55537  0.18124  1.0000
  O   O512      1.0  0.17593  0.94776  0.18900  1.0000
  O   O513      1.0  0.15367  0.63684  0.18632  1.0000
  O   O514      1.0  0.76359  0.68868  0.18703  1.0000
  O   O515      1.0  0.56526  0.89611  0.18425  1.0000
  Ti  Ti243     1.0  0.13399  0.78630  0.19420  1.0000
  Ti  Ti244     1.0  0.13464  0.53892  0.18411  1.0000
  O   O516      1.0  0.12139  0.93479  0.19354  1.0000
  O   O517      1.0  0.09428  0.61784  0.19137  1.0000
  O   O518      1.0  0.70846  0.67802  0.18911  1.0000
  O   O519      1.0  0.51096  0.87123  0.18767  1.0000
  Ti  Ti245     1.0  0.07910  0.75761  0.19377  1.0000
  Ti  Ti246     1.0  0.07807  0.51352  0.19534  1.0000
  O   O520      1.0  0.06321  0.92128  0.19903  1.0000
  O   O521      1.0  0.03951  0.61087  0.19570  1.0000
  O   O522      1.0  0.65168  0.66601  0.19291  1.0000
  O   O523      1.0  0.45211  0.86157  0.19236  1.0000
  Ti  Ti247     1.0  0.01887  0.76013  0.19559  1.0000
  Ti  Ti248     1.0  0.02145  0.51122  0.19911  1.0000
  O   O524      1.0  0.00425  0.90296  0.19952  1.0000
  O   O525      1.0  0.98189  0.59664  0.19989  1.0000
  O   O526      1.0  0.59508  0.65820  0.19683  1.0000
  O   O527      1.0  0.39764  0.83759  0.19767  1.0000
  Ti  Ti249     1.0  0.96315  0.73633  0.20132  1.0000
  Ti  Ti250     1.0  0.96554  0.00372  0.20145  1.0000
  O   O528      1.0  0.94857  0.89146  0.20218  1.0000
  O   O529      1.0  0.92653  0.57854  0.20244  1.0000
  O   O530      1.0  0.53725  0.63973  0.20376  1.0000
  O   O531      1.0  0.33629  0.83107  0.20347  1.0000
  Ti  Ti251     1.0  0.90568  0.72500  0.20098  1.0000
  Ti  Ti252     1.0  0.91171  0.97149  0.20529  1.0000
  O   O532      1.0  0.89145  0.87387  0.20488  1.0000
  O   O533      1.0  0.86923  0.56377  0.20588  1.0000
  O   O534      1.0  0.48099  0.62660  0.20738  1.0000
  O   O535      1.0  0.28109  0.81847  0.20742  1.0000
  Ti  Ti253     1.0  0.84612  0.72075  0.20926  1.0000
  Ti  Ti254     1.0  0.85358  0.96874  0.21020  1.0000
  O   O536      1.0  0.83657  0.86224  0.21023  1.0000
  O   O537      1.0  0.81215  0.55255  0.20858  1.0000
  O   O538      1.0  0.42300  0.60774  0.21060  1.0000
  O   O539      1.0  0.22366  0.80969  0.21159  1.0000
  Ti  Ti255     1.0  0.79041  0.69843  0.20859  1.0000
  Ti  Ti256     1.0  0.79707  0.94846  0.20999  1.0000
  O   O540      1.0  0.77810  0.84572  0.21680  1.0000
  O   O541      1.0  0.75407  0.53798  0.21025  1.0000
  O   O542      1.0  0.36608  0.60064  0.21635  1.0000
  O   O543      1.0  0.16612  0.79060  0.21584  1.0000
  Ti  Ti257     1.0  0.73579  0.69313  0.21818  1.0000
  Ti  Ti258     1.0  0.73910  0.93142  0.21930  1.0000
  O   O544      1.0  0.72109  0.82990  0.21513  1.0000
  O   O545      1.0  0.70058  0.51869  0.21528  1.0000
  O   O546      1.0  0.31181  0.58106  0.22042  1.0000
  O   O547      1.0  0.10732  0.78206  0.21968  1.0000
  Ti  Ti259     1.0  0.67904  0.66832  0.21713  1.0000
  Ti  Ti260     1.0  0.68072  0.92431  0.22078  1.0000
  O   O548      1.0  0.66468  0.81276  0.22033  1.0000
  O   O549      1.0  0.64313  0.50975  0.22335  1.0000
  O   O550      1.0  0.25227  0.57185  0.22466  1.0000
  O   O551      1.0  0.05265  0.75690  0.22226  1.0000
  Ti  Ti261     1.0  0.62263  0.65880  0.22496  1.0000
  Ti  Ti262     1.0  0.62457  0.90384  0.22317  1.0000
  O   O552      1.0  0.60581  0.80950  0.22501  1.0000
  O   O553      1.0  0.58546  0.99330  0.22508  1.0000
  O   O554      1.0  0.19480  0.55978  0.22693  1.0000
  O   O555      1.0  0.99457  0.75337  0.22716  1.0000
  Ti  Ti263     1.0  0.56463  0.65407  0.22506  1.0000
  Ti  Ti264     1.0  0.56749  0.89794  0.22394  1.0000
  O   O556      1.0  0.55047  0.79477  0.22795  1.0000
  O   O557      1.0  0.52910  0.98342  0.23138  1.0000
  O   O558      1.0  0.14014  0.54268  0.23187  1.0000
  O   O559      1.0  0.94006  0.73452  0.23070  1.0000
  Ti  Ti265     1.0  0.51127  0.62969  0.23391  1.0000
  Ti  Ti266     1.0  0.51008  0.89132  0.23088  1.0000
  O   O560      1.0  0.49136  0.78600  0.23097  1.0000
  O   O561      1.0  0.47253  0.96961  0.23204  1.0000
  O   O562      1.0  0.08025  0.51407  0.23606  1.0000
  O   O563      1.0  0.87977  0.72022  0.23004  1.0000
  Ti  Ti267     1.0  0.45504  0.61126  0.23706  1.0000
  Ti  Ti268     1.0  0.45412  0.87304  0.23778  1.0000
  O   O564      1.0  0.43631  0.77172  0.24007  1.0000
  O   O565      1.0  0.41290  0.94969  0.23655  1.0000
  O   O566      1.0  0.02544  0.00220  0.23931  1.0000
  O   O567      1.0  0.82584  0.70076  0.23818  1.0000
  Ti  Ti269     1.0  0.39631  0.60416  0.24313  1.0000
  Ti  Ti270     1.0  0.39913  0.84450  0.23801  1.0000
  O   O568      1.0  0.38013  0.74707  0.24342  1.0000
  O   O569      1.0  0.35689  0.94229  0.23950  1.0000
  O   O570      1.0  0.96972  0.99214  0.24387  1.0000
  O   O571      1.0  0.76887  0.69064  0.24188  1.0000
  Ti  Ti271     1.0  0.34107  0.58799  0.24216  1.0000
  Ti  Ti272     1.0  0.33938  0.83259  0.24496  1.0000
  O   O572      1.0  0.32131  0.73331  0.24868  1.0000
  O   O573      1.0  0.30122  0.92183  0.24742  1.0000
  O   O574      1.0  0.91056  0.97854  0.24546  1.0000
  O   O575      1.0  0.71195  0.67496  0.24534  1.0000
  Ti  Ti273     1.0  0.28346  0.57219  0.25001  1.0000
  Ti  Ti274     1.0  0.28398  0.82249  0.24921  1.0000
  O   O576      1.0  0.26657  0.71239  0.25367  1.0000
  O   O577      1.0  0.24600  0.90126  0.25392  1.0000
  O   O578      1.0  0.85604  0.97147  0.25003  1.0000
  O   O579      1.0  0.65565  0.65849  0.24596  1.0000
  Ti  Ti275     1.0  0.22820  0.55108  0.25511  1.0000
  Ti  Ti276     1.0  0.22804  0.79937  0.24985  1.0000
  O   O580      1.0  0.21000  0.71245  0.25778  1.0000
  O   O581      1.0  0.18709  0.88906  0.25685  1.0000
  O   O582      1.0  0.79906  0.95627  0.25526  1.0000
  O   O583      1.0  0.59589  0.65665  0.25074  1.0000
  Ti  Ti277     1.0  0.17017  0.54964  0.25436  1.0000
  Ti  Ti278     1.0  0.17128  0.79747  0.25883  1.0000
  O   O584      1.0  0.15270  0.69124  0.26042  1.0000
  O   O585      1.0  0.12849  0.88077  0.25984  1.0000
  O   O586      1.0  0.73899  0.93769  0.25750  1.0000
  O   O587      1.0  0.54083  0.64772  0.25478  1.0000
  Ti  Ti279     1.0  0.11532  0.52978  0.26084  1.0000
  Ti  Ti280     1.0  0.11237  0.77947  0.26175  1.0000
  O   O588      1.0  0.09457  0.66854  0.26099  1.0000
  O   O589      1.0  0.07208  0.86557  0.26259  1.0000
  O   O590      1.0  0.68411  0.91996  0.26340  1.0000
  O   O591      1.0  0.48451  0.61496  0.26177  1.0000
  Ti  Ti281     1.0  0.05732  0.50959  0.26730  1.0000
  Ti  Ti282     1.0  0.05377  0.75576  0.26170  1.0000
  O   O592      1.0  0.03816  0.65895  0.26405  1.0000
  O   O593      1.0  0.01528  0.84815  0.26577  1.0000
  O   O594      1.0  0.62628  0.91516  0.26500  1.0000
  O   O595      1.0  0.42796  0.60690  0.26516  1.0000
  Ti  Ti283     1.0  0.00074  0.99422  0.26739  1.0000
  Ti  Ti284     1.0  0.99765  0.74300  0.26582  1.0000
  O   O596      1.0  0.98109  0.64168  0.26990  1.0000
  O   O597      1.0  0.95981  0.82999  0.27118  1.0000
  O   O598      1.0  0.56964  0.89493  0.26906  1.0000
  O   O599      1.0  0.37073  0.59622  0.26983  1.0000
  Ti  Ti285     1.0  0.94388  0.97685  0.27178  1.0000
  Ti  Ti286     1.0  0.94110  0.73231  0.27358  1.0000
  O   O600      1.0  0.92388  0.63066  0.27029  1.0000
  O   O601      1.0  0.90244  0.82126  0.27130  1.0000
  O   O602      1.0  0.51192  0.88843  0.27325  1.0000
  O   O603      1.0  0.31236  0.56663  0.27489  1.0000
  Ti  Ti287     1.0  0.88646  0.97910  0.27555  1.0000
  Ti  Ti288     1.0  0.88595  0.72244  0.26930  1.0000
  O   O604      1.0  0.86873  0.61959  0.27758  1.0000
  O   O605      1.0  0.84601  0.80812  0.27362  1.0000
  O   O606      1.0  0.45544  0.87382  0.27686  1.0000
  O   O607      1.0  0.25947  0.53888  0.27924  1.0000
  Ti  Ti289     1.0  0.82980  0.94715  0.27775  1.0000
  Ti  Ti290     1.0  0.82970  0.71025  0.28110  1.0000
  O   O608      1.0  0.81140  0.60629  0.28075  1.0000
  O   O609      1.0  0.78820  0.79534  0.27872  1.0000
  O   O610      1.0  0.39856  0.85933  0.28262  1.0000
  O   O611      1.0  0.20265  0.54727  0.28157  1.0000
  Ti  Ti291     1.0  0.77123  0.93264  0.27695  1.0000
  Ti  Ti292     1.0  0.77270  0.68217  0.28166  1.0000
  O   O612      1.0  0.75423  0.58748  0.28366  1.0000
  O   O613      1.0  0.73185  0.78630  0.28355  1.0000
  O   O614      1.0  0.34373  0.82916  0.28558  1.0000
  O   O615      1.0  0.14169  0.52916  0.28629  1.0000
  Ti  Ti293     1.0  0.71434  0.91163  0.28931  1.0000
  Ti  Ti294     1.0  0.71307  0.66542  0.28535  1.0000
  O   O616      1.0  0.69548  0.57452  0.28438  1.0000
  O   O617      1.0  0.67227  0.76327  0.28896  1.0000
  O   O618      1.0  0.28787  0.81298  0.29102  1.0000
  O   O619      1.0  0.08725  0.50688  0.28783  1.0000
  Ti  Ti295     1.0  0.65901  0.90506  0.28940  1.0000
  Ti  Ti296     1.0  0.65324  0.66701  0.29251  1.0000
  O   O620      1.0  0.64014  0.55792  0.29195  1.0000
  O   O621      1.0  0.61779  0.75165  0.29302  1.0000
  O   O622      1.0  0.22748  0.81292  0.29392  1.0000
  O   O623      1.0  0.02848  0.00269  0.29496  1.0000
  Ti  Ti297     1.0  0.59849  0.90071  0.29261  1.0000
  Ti  Ti298     1.0  0.60117  0.64063  0.29662  1.0000
  O   O624      1.0  0.58259  0.54285  0.29412  1.0000
  O   O625      1.0  0.56171  0.73262  0.29374  1.0000
  O   O626      1.0  0.17197  0.79339  0.29925  1.0000
  O   O627      1.0  0.97055  0.99266  0.29672  1.0000
  Ti  Ti299     1.0  0.54492  0.87005  0.29568  1.0000
  Ti  Ti300     1.0  0.54539  0.62803  0.29989  1.0000
  O   O628      1.0  0.52772  0.53026  0.29938  1.0000
  O   O629      1.0  0.50567  0.72337  0.29799  1.0000
  O   O630      1.0  0.11443  0.76339  0.30426  1.0000
  O   O631      1.0  0.91653  0.98102  0.29878  1.0000
  Ti  Ti301     1.0  0.48784  0.86487  0.30139  1.0000
  Ti  Ti302     1.0  0.48786  0.60737  0.30391  1.0000
  O   O632      1.0  0.46898  0.51642  0.30184  1.0000
  O   O633      1.0  0.44748  0.71803  0.30479  1.0000
  O   O634      1.0  0.05671  0.75310  0.30684  1.0000
  O   O635      1.0  0.85892  0.95925  0.30295  1.0000
  Ti  Ti303     1.0  0.42791  0.87020  0.30692  1.0000
  Ti  Ti304     1.0  0.42975  0.61989  0.30730  1.0000
  O   O636      1.0  0.41027  0.00630  0.30603  1.0000
  O   O637      1.0  0.39093  0.69606  0.31004  1.0000
  O   O638      1.0  0.00152  0.73359  0.31056  1.0000
  O   O639      1.0  0.80121  0.94208  0.30743  1.0000
  Ti  Ti305     1.0  0.37143  0.84560  0.30877  1.0000
  Ti  Ti306     1.0  0.37865  0.57808  0.31482  1.0000
  O   O640      1.0  0.35511  0.98490  0.31630  1.0000
  O   O641      1.0  0.33402  0.67264  0.31328  1.0000
  O   O642      1.0  0.94388  0.72273  0.31503  1.0000
  O   O643      1.0  0.74597  0.93034  0.31128  1.0000
  Ti  Ti307     1.0  0.31862  0.80894  0.31503  1.0000
  Ti  Ti308     1.0  0.31810  0.56430  0.31671  1.0000
  O   O644      1.0  0.29830  0.95956  0.31532  1.0000
  O   O645      1.0  0.27646  0.65345  0.31689  1.0000
  O   O646      1.0  0.89019  0.70827  0.31579  1.0000
  O   O647      1.0  0.68850  0.91366  0.31622  1.0000
  Ti  Ti309     1.0  0.25957  0.81023  0.31637  1.0000
  Ti  Ti310     1.0  0.26177  0.55197  0.32184  1.0000
  O   O648      1.0  0.24184  0.95087  0.32126  1.0000
  O   O649      1.0  0.22078  0.64761  0.32435  1.0000
  O   O650      1.0  0.83338  0.70012  0.32059  1.0000
  O   O651      1.0  0.63138  0.89393  0.31873  1.0000
  Ti  Ti311     1.0  0.20317  0.79965  0.32182  1.0000
  Ti  Ti312     1.0  0.20364  0.55004  0.32390  1.0000
  O   O652      1.0  0.18537  0.93402  0.32583  1.0000
  O   O653      1.0  0.16320  0.63095  0.32522  1.0000
  O   O654      1.0  0.77511  0.69653  0.32073  1.0000
  O   O655      1.0  0.57346  0.89234  0.32263  1.0000
  Ti  Ti313     1.0  0.14384  0.77790  0.32967  1.0000
  Ti  Ti314     1.0  0.14615  0.53191  0.32896  1.0000
  O   O656      1.0  0.12873  0.91744  0.32901  1.0000
  O   O657      1.0  0.10623  0.61692  0.33140  1.0000
  O   O658      1.0  0.71693  0.68019  0.32718  1.0000
  O   O659      1.0  0.51908  0.87088  0.32661  1.0000
  Ti  Ti315     1.0  0.08524  0.76483  0.32874  1.0000
  Ti  Ti316     1.0  0.09058  0.50894  0.33009  1.0000
  O   O660      1.0  0.07062  0.90759  0.33341  1.0000
  O   O661      1.0  0.04799  0.59706  0.33321  1.0000
  O   O662      1.0  0.65944  0.65541  0.33287  1.0000
  O   O663      1.0  0.45902  0.86585  0.33160  1.0000
  Ti  Ti317     1.0  0.02951  0.73764  0.33203  1.0000
  Ti  Ti318     1.0  0.03035  0.99319  0.34165  1.0000
  O   O664      1.0  0.01298  0.89468  0.33627  1.0000
  O   O665      1.0  0.99029  0.58340  0.33834  1.0000
  O   O666      1.0  0.60391  0.64436  0.33422  1.0000
  O   O667      1.0  0.40463  0.84576  0.33463  1.0000
  Ti  Ti319     1.0  0.97099  0.74031  0.33836  1.0000
  Ti  Ti320     1.0  0.97570  0.98462  0.33793  1.0000
  O   O668      1.0  0.95680  0.87869  0.33667  1.0000
  O   O669      1.0  0.93552  0.57930  0.34564  1.0000
  O   O670      1.0  0.54719  0.63635  0.33743  1.0000
  O   O671      1.0  0.34887  0.82022  0.33921  1.0000
  Ti  Ti321     1.0  0.91464  0.71456  0.34499  1.0000
  Ti  Ti322     1.0  0.91746  0.97182  0.34739  1.0000
  O   O672      1.0  0.90067  0.87381  0.34440  1.0000
  O   O673      1.0  0.87837  0.56248  0.34961  1.0000
  O   O674      1.0  0.49067  0.61584  0.34158  1.0000
  O   O675      1.0  0.28948  0.80870  0.34427  1.0000
  Ti  Ti323     1.0  0.85713  0.70846  0.34926  1.0000
  Ti  Ti324     1.0  0.86182  0.95762  0.34009  1.0000
  O   O676      1.0  0.84310  0.86024  0.34822  1.0000
  O   O677      1.0  0.82085  0.55067  0.34734  1.0000
  O   O678      1.0  0.43294  0.60076  0.34782  1.0000
  O   O679      1.0  0.23251  0.80394  0.34754  1.0000
  Ti  Ti325     1.0  0.80006  0.69992  0.34960  1.0000
  Ti  Ti326     1.0  0.80482  0.94429  0.34463  1.0000
  O   O680      1.0  0.78663  0.84394  0.35213  1.0000
  O   O681      1.0  0.76364  0.53171  0.35034  1.0000
  O   O682      1.0  0.37608  0.59557  0.35334  1.0000
  O   O683      1.0  0.17632  0.78267  0.35148  1.0000
  Ti  Ti327     1.0  0.74634  0.67138  0.35386  1.0000
  Ti  Ti328     1.0  0.74662  0.93937  0.34942  1.0000
  O   O684      1.0  0.73099  0.82913  0.35112  1.0000
  O   O685      1.0  0.70793  0.50997  0.35516  1.0000
  O   O686      1.0  0.31921  0.56866  0.35734  1.0000
  O   O687      1.0  0.11777  0.77752  0.35944  1.0000
  Ti  Ti329     1.0  0.69094  0.65985  0.35461  1.0000
  Ti  Ti330     1.0  0.69171  0.90749  0.35649  1.0000
  O   O688      1.0  0.67248  0.80767  0.35972  1.0000
  O   O689      1.0  0.65093  0.99261  0.36218  1.0000
  O   O690      1.0  0.26238  0.55109  0.36040  1.0000
  O   O691      1.0  0.06239  0.74220  0.36088  1.0000
  Ti  Ti331     1.0  0.63454  0.65656  0.36553  1.0000
  Ti  Ti332     1.0  0.63331  0.89279  0.35543  1.0000
  O   O692      1.0  0.61699  0.79868  0.36607  1.0000
  O   O693      1.0  0.59423  0.97875  0.36470  1.0000
  O   O694      1.0  0.20473  0.54437  0.36444  1.0000
  O   O695      1.0  0.00404  0.74417  0.36421  1.0000
  Ti  Ti333     1.0  0.57813  0.63331  0.36755  1.0000
  Ti  Ti334     1.0  0.57280  0.88998  0.36264  1.0000
  O   O696      1.0  0.55889  0.78266  0.36458  1.0000
  O   O697      1.0  0.53608  0.97056  0.36935  1.0000
  O   O698      1.0  0.14893  0.52467  0.36755  1.0000
  O   O699      1.0  0.94986  0.72342  0.37031  1.0000
  Ti  Ti335     1.0  0.52093  0.61670  0.37183  1.0000
  Ti  Ti336     1.0  0.51927  0.86659  0.36368  1.0000
  O   O700      1.0  0.50361  0.76865  0.36972  1.0000
  O   O701      1.0  0.48151  0.95435  0.37437  1.0000
  O   O702      1.0  0.09209  0.50491  0.37250  1.0000
  O   O703      1.0  0.89014  0.71792  0.37321  1.0000
  Ti  Ti337     1.0  0.46273  0.60529  0.37248  1.0000
  Ti  Ti338     1.0  0.46366  0.85295  0.37145  1.0000
  O   O704      1.0  0.44422  0.75869  0.37235  1.0000
  O   O705      1.0  0.42477  0.93968  0.37857  1.0000
  O   O706      1.0  0.03701  0.00266  0.37931  1.0000
  O   O707      1.0  0.83205  0.70580  0.37414  1.0000
  Ti  Ti339     1.0  0.40753  0.58997  0.37953  1.0000
  Ti  Ti340     1.0  0.40688  0.83462  0.37402  1.0000
  O   O708      1.0  0.38804  0.74161  0.38314  1.0000
  O   O709      1.0  0.36881  0.92105  0.38260  1.0000
  O   O710      1.0  0.97568  0.99299  0.38131  1.0000
  O   O711      1.0  0.77855  0.67167  0.37527  1.0000
  Ti  Ti341     1.0  0.34876  0.57995  0.38298  1.0000
  Ti  Ti342     1.0  0.34901  0.82902  0.38223  1.0000
  O   O712      1.0  0.33210  0.72673  0.38533  1.0000
  O   O713      1.0  0.30993  0.91450  0.38742  1.0000
  O   O714      1.0  0.92059  0.97861  0.38474  1.0000
  O   O715      1.0  0.72030  0.67358  0.37896  1.0000
  Ti  Ti343     1.0  0.29218  0.56456  0.38700  1.0000
  Ti  Ti344     1.0  0.29378  0.80904  0.38432  1.0000
  O   O716      1.0  0.27552  0.70445  0.38666  1.0000
  O   O717      1.0  0.25355  0.89378  0.38825  1.0000
  O   O718      1.0  0.66511  0.65488  0.38606  1.0000
  Ti  Ti345     1.0  0.23390  0.54364  0.39330  1.0000
  Ti  Ti346     1.0  0.23686  0.79451  0.38423  1.0000
  O   O719      1.0  0.22006  0.68917  0.39234  1.0000
  O   O720      1.0  0.19725  0.87260  0.39395  1.0000
  O   O721      1.0  0.60719  0.64250  0.39016  1.0000
  Ti  Ti347     1.0  0.17817  0.52583  0.39310  1.0000
  Ti  Ti348     1.0  0.17960  0.77574  0.38864  1.0000
  O   O722      1.0  0.16084  0.67660  0.39506  1.0000
  O   O723      1.0  0.14189  0.85949  0.40254  1.0000
  O   O724      1.0  0.54976  0.62640  0.39217  1.0000
  Ti  Ti349     1.0  0.11924  0.51995  0.39931  1.0000
  Ti  Ti350     1.0  0.12274  0.76034  0.39790  1.0000
  O   O725      1.0  0.10483  0.66355  0.39857  1.0000
  O   O726      1.0  0.08345  0.84446  0.40883  1.0000
  O   O727      1.0  0.49263  0.61055  0.39539  1.0000
  Ti  Ti351     1.0  0.06750  0.01143  0.40429  1.0000
  Ti  Ti352     1.0  0.06631  0.75378  0.39706  1.0000
  O   O728      1.0  0.04681  0.64591  0.40438  1.0000
  O   O729      1.0  0.02813  0.83224  0.40359  1.0000
  O   O730      1.0  0.43765  0.59945  0.39991  1.0000
  Ti  Ti353     1.0  0.01108  0.98395  0.41319  1.0000
  Ti  Ti354     1.0  0.00997  0.73010  0.40279  1.0000
  O   O731      1.0  0.99213  0.63545  0.40952  1.0000
  O   O732      1.0  0.96584  0.83022  0.40961  1.0000
  O   O733      1.0  0.38083  0.58048  0.40499  1.0000
  Ti  Ti355     1.0  0.95319  0.97389  0.40651  1.0000
  Ti  Ti356     1.0  0.95093  0.71741  0.40847  1.0000
  O   O734      1.0  0.93322  0.62749  0.41783  1.0000
  O   O735      1.0  0.32360  0.57018  0.40988  1.0000
  O   O736      1.0  0.97376  0.60057  0.05021  1.0000
  O   O737      1.0  0.58507  0.66314  0.05986  1.0000
  O   O738      1.0  0.64582  0.66295  0.05305  1.0000
  O   O739      1.0  0.70072  0.68104  0.04942  1.0000
  O   O740      1.0  0.75542  0.70543  0.04590  1.0000
  O   O741      1.0  0.81169  0.71519  0.04249  1.0000
  O   O742      1.0  0.86806  0.72607  0.04167  1.0000
  O   O743      1.0  0.92188  0.74169  0.03574  1.0000
  O   O744      1.0  0.26938  0.53577  0.41339  1.0000
  O   O745      1.0  0.20885  0.53310  0.41823  1.0000
  O   O746      1.0  0.15324  0.51892  0.42065  1.0000
  O   O747      1.0  0.09687  0.01112  0.42830  1.0000
  O   O748      1.0  0.04001  0.99134  0.43086  1.0000
  O   O749      1.0  0.98424  0.95726  0.43422  1.0000
  H   H75       1.0  0.00911  0.93097  0.07540  1.0000
  H   H76       1.0  0.00182  0.83483  0.06766  1.0000
  O   O750      1.0  0.99704  0.90925  0.06190  1.0000
  H   H77       1.0  0.91007  0.88868  0.40172  1.0000
  H   H78       1.0  0.89868  0.79836  0.39761  1.0000
  O   O751      1.0  0.90830  0.82844  0.41219  1.0000
  H   H79       1.0  0.88326  0.76990  0.49864  1.0000
  H   H80       1.0  0.87519  0.80497  0.46680  1.0000
  O   O752      1.0  0.89018  0.75979  0.47922  1.0000
  H   H81       1.0  0.82236  0.96909  0.39944  1.0000
  H   H82       1.0  0.79189  0.03296  0.39317  1.0000
  O   O753      1.0  0.80470  0.95908  0.39271  1.0000
  H   H83       1.0  0.76613  0.85075  0.40010  1.0000
  H   H84       1.0  0.75114  0.96790  0.40935  1.0000
  O   O754      1.0  0.74909  0.91378  0.39514  1.0000
  H   H85       1.0  0.72027  0.88770  0.40421  1.0000
  H   H86       1.0  0.69489  0.84477  0.41123  1.0000
  O   O755      1.0  0.69923  0.89834  0.40252  1.0000
  H   H87       1.0  0.62790  0.99303  0.41074  1.0000
  H   H88       1.0  0.64594  0.87771  0.41870  1.0000
  O   O756      1.0  0.62992  0.92377  0.40768  1.0000
  H   H89       1.0  0.57958  0.81547  0.42018  1.0000
  H   H90       1.0  0.59928  0.87934  0.41061  1.0000
  O   O757      1.0  0.58024  0.88133  0.41128  1.0000
  H   H91       1.0  0.51630  0.92139  0.42137  1.0000
  H   H92       1.0  0.53870  0.80795  0.42757  1.0000
  O   O758      1.0  0.52181  0.84759  0.41510  1.0000
  H   H93       1.0  0.49502  0.81872  0.41871  1.0000
  H   H94       1.0  0.48269  0.72966  0.41574  1.0000
  O   O759      1.0  0.47652  0.80644  0.41574  1.0000
  H   H95       1.0  0.41272  0.90015  0.43687  1.0000
  H   H96       1.0  0.42084  0.78169  0.43387  1.0000
  O   O760      1.0  0.40796  0.84777  0.42602  1.0000
  H   H97       1.0  0.36957  0.85568  0.43097  1.0000
  H   H98       1.0  0.35610  0.77961  0.44086  1.0000
  O   O761      1.0  0.35246  0.84130  0.42619  1.0000
  H   H99       1.0  0.29487  0.85670  0.43836  1.0000
  H   H100      1.0  0.27205  0.80339  0.43366  1.0000
  O   O762      1.0  0.29273  0.79753  0.42956  1.0000
  H   H101      1.0  0.22844  0.88754  0.43473  1.0000
  H   H102      1.0  0.22555  0.77753  0.43886  1.0000
  O   O763      1.0  0.23747  0.81130  0.43143  1.0000
  H   H103      1.0  0.18358  0.69058  0.44138  1.0000
  H   H104      1.0  0.17697  0.78810  0.45676  1.0000
  O   O764      1.0  0.18583  0.75505  0.43932  1.0000
  H   H105      1.0  0.14135  0.65003  0.44610  1.0000
  H   H106      1.0  0.11621  0.74798  0.45764  1.0000
  O   O765      1.0  0.13068  0.72293  0.44320  1.0000
  H   H107      1.0  0.07742  0.63895  0.44940  1.0000
  H   H108      1.0  0.04616  0.72166  0.45223  1.0000
  O   O766      1.0  0.06605  0.71396  0.44751  1.0000
  H   H109      1.0  0.00402  0.83341  0.44989  1.0000
  H   H110      1.0  0.00066  0.73267  0.46306  1.0000
  O   O767      1.0  0.01304  0.76037  0.45179  1.0000
  H   H111      1.0  0.95988  0.70885  0.46847  1.0000
  H   H112      1.0  0.92541  0.73632  0.46060  1.0000
  O   O768      1.0  0.94314  0.73294  0.45368  1.0000
  H   H113      1.0  0.06404  0.79340  0.07917  1.0000
  H   H114      1.0  0.04824  0.72032  0.06993  1.0000
  O   O769      1.0  0.04605  0.78052  0.08200  1.0000
  H   H115      1.0  0.06161  0.03727  0.02976  1.0000
  H   H116      1.0  0.08001  0.95605  0.00782  1.0000
  O   O770      1.0  0.07840  0.02126  0.01667  1.0000
  H   H117      1.0  0.18048  0.69472  0.07713  1.0000
  H   H118      1.0  0.18097  0.79220  0.06638  1.0000
  O   O771      1.0  0.16859  0.76437  0.07602  1.0000
  H   H119      1.0  0.23324  0.76401  0.06398  1.0000
  H   H120      1.0  0.20984  0.87734  0.06278  1.0000
  O   O772      1.0  0.21317  0.80649  0.07238  1.0000
  H   H121      1.0  0.24839  0.90713  0.06024  1.0000
  H   H122      1.0  0.28202  0.87543  0.05706  1.0000
  O   O773      1.0  0.26746  0.84812  0.06056  1.0000
  H   H123      1.0  0.34312  0.77074  0.05225  1.0000
  H   H124      1.0  0.33604  0.89333  0.05171  1.0000
  O   O774      1.0  0.33310  0.83383  0.06137  1.0000
  H   H125      1.0  0.40694  0.86036  0.05501  1.0000
  H   H126      1.0  0.39377  0.77406  0.05609  1.0000
  O   O775      1.0  0.38927  0.84434  0.05950  1.0000
  H   H127      1.0  0.44297  0.89088  0.03547  1.0000
  H   H128      1.0  0.45142  0.78255  0.04967  1.0000
  O   O776      1.0  0.44154  0.85377  0.05232  1.0000
  H   H129      1.0  0.51403  0.78427  0.05144  1.0000
  H   H130      1.0  0.51838  0.87828  0.03971  1.0000
  O   O777      1.0  0.50300  0.85556  0.04673  1.0000
  H   H131      1.0  0.54839  0.99192  0.02942  1.0000
  H   H132      1.0  0.57316  0.83106  0.03871  1.0000
  O   O778      1.0  0.55434  0.87975  0.04645  1.0000
  H   H133      1.0  0.61033  0.85196  0.02173  1.0000
  H   H134      1.0  0.58910  0.00479  0.04224  1.0000
  O   O779      1.0  0.60812  0.95432  0.04236  1.0000
  H   H135      1.0  0.63801  0.51536  0.94692  1.0000
  H   H136      1.0  0.61994  0.54755  0.97461  1.0000
  O   O780      1.0  0.63069  0.49374  0.96330  1.0000
  H   H137      1.0  0.71863  0.88723  0.02462  1.0000
  H   H138      1.0  0.71030  0.00256  0.02803  1.0000
  O   O781      1.0  0.72520  0.94201  0.03335  1.0000
  H   H139      1.0  0.75708  0.95781  0.02575  1.0000
  H   H140      1.0  0.77482  0.00985  0.00887  1.0000
  O   O782      1.0  0.77609  0.96081  0.02539  1.0000
  H   H141      1.0  0.83887  0.89248  0.01685  1.0000
  H   H142      1.0  0.83839  0.41219  0.01268  1.0000
  O   O783      1.0  0.84660  0.94317  0.02385  1.0000
  H   H143      1.0  0.87653  0.94833  0.02100  1.0000
  H   H144      1.0  0.91274  0.36869  0.02050  1.0000
  O   O784      1.0  0.89603  0.96057  0.02011  1.0000
  H   H145      1.0  0.98126  0.95153  0.01035  1.0000
  H   H146      1.0  0.94681  0.00770  0.00721  1.0000
  O   O785      1.0  0.96035  0.46411  0.01411  1.0000
  H   H147      1.0  0.90975  0.00075  0.45406  1.0000
  H   H148      1.0  0.91220  0.50192  0.46214  1.0000
  O   O786      1.0  0.93058  0.96680  0.45163  1.0000
  H   H149      1.0  0.98131  0.71029  0.00384  1.0000
  H   H150      1.0  0.97833  0.82545  0.01729  1.0000
  O   O787      1.0  0.97992  0.75490  0.02122  1.0000
  H   H151      1.0  0.99817  0.06734  0.48760  1.0000
  H   H152      1.0  0.97706  0.03604  0.46351  1.0000
  O   O788      1.0  0.97699  0.08201  0.48117  1.0000
  H   H153      1.0  0.36501  0.44239  0.82215  1.0000
  H   H154      1.0  0.38364  0.46012  0.79823  1.0000
  O   O789      1.0  0.37139  0.42559  0.80299  1.0000
  H   H155      1.0  0.56876  0.64523  0.99638  1.0000
  H   H156      1.0  0.59448  0.66925  0.00913  1.0000
  O   O790      1.0  0.58762  0.64698  0.99257  1.0000
  H   H157      1.0  0.57536  0.14490  0.85553  1.0000
  H   H158      1.0  0.58358  0.07370  0.88602  1.0000
  O   O791      1.0  0.59107  0.08745  0.86658  1.0000
  H   H159      1.0  0.60418  0.33788  0.01271  1.0000
  H   H160      1.0  0.61803  0.23010  0.02565  1.0000
  O   O792      1.0  0.60452  0.27004  0.01144  1.0000
  H   H161      1.0  0.63480  0.17803  0.80000  1.0000
  H   H162      1.0  0.66414  0.17148  0.79325  1.0000
  O   O793      1.0  0.65374  0.12733  0.79579  1.0000
  H   H163      1.0  0.96114  0.75756  0.93906  1.0000
  H   H164      1.0  0.99250  0.71851  0.94959  1.0000
  O   O794      1.0  0.97861  0.76739  0.93779  1.0000
  H   H165      1.0  0.25753  0.95305  0.47843  1.0000
  H   H166      1.0  0.23458  0.93739  0.49463  1.0000
  O   O795      1.0  0.24793  0.90359  0.47999  1.0000
  H   H167      1.0  0.37396  0.62944  0.43570  1.0000
  H   H168      1.0  0.35110  0.66406  0.45865  1.0000
  O   O796      1.0  0.36994  0.67190  0.45443  1.0000
  H   H169      1.0  0.30553  0.44537  0.69732  1.0000
  H   H170      1.0  0.34211  0.37481  0.69985  1.0000
  O   O797      1.0  0.32447  0.40232  0.68905  1.0000
  H   H171      1.0  0.68318  0.79021  0.64548  1.0000
  H   H172      1.0  0.70429  0.71155  0.62101  1.0000
  O   O798      1.0  0.70341  0.76501  0.63712  1.0000
  H   H173      1.0  0.86655  0.22523  0.75554  1.0000
  H   H174      1.0  0.86611  0.30551  0.77716  1.0000
  O   O799      1.0  0.86232  0.24202  0.77494  1.0000
  H   H175      1.0  0.04135  0.03151  0.06819  1.0000
  H   H176      1.0  0.01625  0.11030  0.05338  1.0000
  O   O800      1.0  0.03694  0.08465  0.05450  1.0000
  H   H177      1.0  0.68460  0.85470  0.01311  1.0000
  H   H178      1.0  0.70756  0.75014  0.02070  1.0000
  O   O801      1.0  0.70376  0.80785  0.00820  1.0000
  H   H179      1.0  0.15690  0.07955  0.73869  1.0000
  H   H180      1.0  0.15951  0.96925  0.73923  1.0000
  O   O802      1.0  0.15754  0.02415  0.72650  1.0000
  H   H181      1.0  0.17897  0.11936  0.93035  1.0000
  H   H182      1.0  0.16363  0.08086  0.95359  1.0000
  O   O803      1.0  0.18252  0.07007  0.94572  1.0000
  H   H183      1.0  0.59522  0.36691  0.93458  1.0000
  H   H184      1.0  0.60735  0.42541  0.95664  1.0000
  O   O804      1.0  0.58938  0.41558  0.95041  1.0000
  H   H185      1.0  0.66306  0.55654  0.63741  1.0000
  H   H186      1.0  0.69493  0.48357  0.63690  1.0000
  O   O805      1.0  0.68031  0.52925  0.62459  1.0000
  H   H187      1.0  0.14165  0.40009  0.84959  1.0000
  H   H188      1.0  0.12980  0.51752  0.85686  1.0000
  O   O806      1.0  0.14410  0.45409  0.86223  1.0000
  H   H189      1.0  0.63711  0.50569  0.85659  1.0000
  H   H190      1.0  0.64177  0.46991  0.88768  1.0000
  O   O807      1.0  0.62688  0.48887  0.87301  1.0000
  H   H191      1.0  0.13422  0.70008  0.94081  1.0000
  H   H192      1.0  0.14882  0.72173  0.91571  1.0000
  O   O808      1.0  0.15366  0.68905  0.93426  1.0000
  H   H193      1.0  0.84869  0.56076  0.94545  1.0000
  H   H194      1.0  0.87191  0.59100  0.96292  1.0000
  O   O809      1.0  0.86925  0.54402  0.94788  1.0000
  H   H195      1.0  0.01999  0.85884  0.52907  1.0000
  H   H196      1.0  0.00675  0.96861  0.51715  1.0000
  O   O810      1.0  0.00170  0.91908  0.52748  1.0000
  H   H197      1.0  0.57313  0.79077  0.87014  1.0000
  H   H198      1.0  0.55353  0.90209  0.86948  1.0000
  O   O811      1.0  0.56846  0.84975  0.85952  1.0000
  H   H199      1.0  0.17949  0.69765  0.68644  1.0000
  H   H200      1.0  0.15258  0.73127  0.66619  1.0000
  O   O812      1.0  0.16363  0.68025  0.67810  1.0000
  H   H201      1.0  0.86153  0.91704  0.41020  1.0000
  H   H202      1.0  0.86230  0.02408  0.40478  1.0000
  O   O813      1.0  0.85819  0.96970  0.39516  1.0000
  H   H203      1.0  0.66647  0.30698  0.98166  1.0000
  H   H204      1.0  0.66059  0.41441  0.98002  1.0000
  O   O814      1.0  0.67547  0.35393  0.98726  1.0000
  H   H205      1.0  0.35012  0.34429  0.91212  1.0000
  H   H206      1.0  0.32780  0.45868  0.91487  1.0000
  O   O815      1.0  0.33661  0.39863  0.90168  1.0000
  H   H207      1.0  0.84690  0.28066  0.53235  1.0000
  H   H208      1.0  0.87148  0.30100  0.54608  1.0000
  O   O816      1.0  0.86512  0.29076  0.52754  1.0000
  H   H209      1.0  0.03751  0.59429  0.97007  1.0000
  H   H210      1.0  0.03015  0.57855  0.93939  1.0000
  O   O817      1.0  0.02630  0.63010  0.95453  1.0000
  H   H211      1.0  0.51399  0.08752  0.84973  1.0000
  H   H212      1.0  0.52367  0.14913  0.82618  1.0000
  O   O818      1.0  0.50920  0.12275  0.83155  1.0000
  H   H213      1.0  0.05182  0.06110  0.58478  1.0000
  H   H214      1.0  0.05489  0.14644  0.60085  1.0000
  O   O819      1.0  0.04541  0.13482  0.58449  1.0000
  H   H215      1.0  0.50255  0.72725  0.65735  1.0000
  H   H216      1.0  0.52561  0.62381  0.66474  1.0000
  O   O820      1.0  0.50783  0.65161  0.65402  1.0000
  H   H217      1.0  0.07377  0.72078  0.62632  1.0000
  H   H218      1.0  0.10128  0.69148  0.60831  1.0000
  O   O821      1.0  0.08866  0.74632  0.62042  1.0000
  H   H219      1.0  0.75787  0.72023  0.83425  1.0000
  H   H220      1.0  0.75036  0.81676  0.81724  1.0000
  O   O822      1.0  0.76710  0.77056  0.82978  1.0000
  H   H221      1.0  0.79602  0.57008  0.91312  1.0000
  H   H222      1.0  0.78312  0.61082  0.88351  1.0000
  O   O823      1.0  0.78542  0.55521  0.89582  1.0000
  H   H223      1.0  0.85800  0.95431  0.53200  1.0000
  H   H224      1.0  0.85962  0.05580  0.52335  1.0000
  O   O824      1.0  0.84927  0.02769  0.53704  1.0000
  H   H225      1.0  0.39715  0.63570  0.92328  1.0000
  H   H226      1.0  0.37641  0.62293  0.94667  1.0000
  O   O825      1.0  0.39590  0.59041  0.93987  1.0000
  H   H227      1.0  0.13052  0.06608  0.83751  1.0000
  H   H228      1.0  0.12296  0.01783  0.86434  1.0000
  O   O826      1.0  0.11712  0.03160  0.84500  1.0000
  H   H229      1.0  0.80810  0.52148  0.95116  1.0000
  H   H230      1.0  0.80178  0.63807  0.94819  1.0000
  O   O827      1.0  0.81293  0.57077  0.93888  1.0000
  H   H231      1.0  0.57396  0.30530  0.61478  1.0000
  H   H232      1.0  0.55932  0.22974  0.62622  1.0000
  O   O828      1.0  0.55543  0.29851  0.61862  1.0000
  H   H233      1.0  0.22894  0.86159  0.77552  1.0000
  H   H234      1.0  0.19579  0.87995  0.77939  1.0000
  O   O829      1.0  0.21308  0.88241  0.78960  1.0000
  H   H235      1.0  0.79497  0.54341  0.53183  1.0000
  H   H236      1.0  0.76801  0.52664  0.51697  1.0000
  O   O830      1.0  0.78805  0.52274  0.51423  1.0000
  H   H237      1.0  0.88283  0.80699  0.55265  1.0000
  H   H238      1.0  0.85690  0.79592  0.53426  1.0000
  O   O831      1.0  0.87260  0.82483  0.53408  1.0000
  H   H239      1.0  0.39420  0.68016  0.47470  1.0000
  H   H240      1.0  0.41233  0.63074  0.50038  1.0000
  O   O832      1.0  0.40676  0.69028  0.48846  1.0000
  H   H241      1.0  0.79923  0.49644  0.71653  1.0000
  H   H242      1.0  0.81852  0.56781  0.71189  1.0000
  O   O833      1.0  0.80314  0.55756  0.72382  1.0000
  H   H243      1.0  0.47833  0.30881  0.73695  1.0000
  H   H244      1.0  0.47459  0.22639  0.75309  1.0000
  O   O834      1.0  0.48987  0.25823  0.75133  1.0000
  H   H245      1.0  0.50717  0.14962  0.69671  1.0000
  H   H246      1.0  0.51045  0.14529  0.72910  1.0000
  O   O835      1.0  0.51823  0.11277  0.71198  1.0000
  H   H247      1.0  0.42234  0.69255  0.98396  1.0000
  H   H248      1.0  0.43148  0.60977  0.95866  1.0000
  O   O836      1.0  0.43909  0.62797  0.97540  1.0000
  H   H249      1.0  0.51109  0.00022  0.88582  1.0000
  H   H250      1.0  0.53634  0.02243  0.89616  1.0000
  O   O837      1.0  0.52857  0.00363  0.87950  1.0000
  H   H251      1.0  0.75992  0.09745  0.59296  1.0000
  H   H252      1.0  0.72572  0.17959  0.59522  1.0000
  O   O838      1.0  0.74584  0.17047  0.59375  1.0000
  H   H253      1.0  0.64930  0.64532  0.43329  1.0000
  H   H254      1.0  0.62152  0.63301  0.42777  1.0000
  O   O839      1.0  0.63755  0.60992  0.43919  1.0000
  H   H255      1.0  0.38379  0.10425  0.55570  1.0000
  H   H256      1.0  0.34918  0.13261  0.55518  1.0000
  O   O840      1.0  0.36530  0.15789  0.54949  1.0000
  H   H257      1.0  0.56325  0.53714  0.42560  1.0000
  H   H258      1.0  0.54398  0.57695  0.45076  1.0000
  O   O841      1.0  0.56378  0.56565  0.44521  1.0000
  H   H259      1.0  0.52116  0.64739  0.62377  1.0000
  H   H260      1.0  0.54604  0.60059  0.60109  1.0000
  O   O842      1.0  0.53299  0.66522  0.60750  1.0000
  H   H261      1.0  0.17289  0.31855  0.49502  1.0000
  H   H262      1.0  0.20179  0.24122  0.50897  1.0000
  O   O843      1.0  0.18621  0.30759  0.51017  1.0000
  H   H263      1.0  0.80043  0.39434  0.68380  1.0000
  H   H264      1.0  0.77283  0.42061  0.70512  1.0000
  O   O844      1.0  0.79388  0.39045  0.70464  1.0000
  H   H265      1.0  0.30575  0.26047  0.85125  1.0000
  H   H266      1.0  0.31824  0.32766  0.86926  1.0000
  O   O845      1.0  0.30081  0.32347  0.86224  1.0000
  H   H267      1.0  0.31226  0.66377  0.46659  1.0000
  H   H268      1.0  0.32646  0.59026  0.44269  1.0000
  O   O846      1.0  0.32910  0.60856  0.46218  1.0000
  H   H269      1.0  0.54557  0.85143  0.79716  1.0000
  H   H270      1.0  0.55311  0.82379  0.82930  1.0000
  O   O847      1.0  0.55065  0.79477  0.81089  1.0000
  H   H271      1.0  0.73676  0.09291  0.70549  1.0000
  H   H272      1.0  0.73764  0.19992  0.71938  1.0000
  O   O848      1.0  0.73899  0.15706  0.70215  1.0000
  H   H273      1.0  0.88385  0.62661  0.40972  1.0000
  H   H274      1.0  0.87540  0.57654  0.43566  1.0000
  O   O849      1.0  0.86743  0.62171  0.41978  1.0000
  H   H275      1.0  0.76001  0.88393  0.69000  1.0000
  H   H276      1.0  0.74652  0.90326  0.66174  1.0000
  O   O850      1.0  0.76494  0.86722  0.66993  1.0000
  H   H277      1.0  0.60220  0.60018  0.88184  1.0000
  H   H278      1.0  0.57916  0.65595  0.90608  1.0000
  O   O851      1.0  0.58484  0.66579  0.88585  1.0000
  H   H279      1.0  0.06160  0.75906  0.89173  1.0000
  H   H280      1.0  0.06060  0.80933  0.86002  1.0000
  O   O852      1.0  0.07341  0.76237  0.87460  1.0000
  H   H281      1.0  0.70416  0.74310  0.69989  1.0000
  H   H282      1.0  0.67808  0.76445  0.72297  1.0000
  O   O853      1.0  0.68974  0.79764  0.71037  1.0000
  H   H283      1.0  0.92951  0.17519  0.98166  1.0000
  H   H284      1.0  0.90718  0.27505  0.97253  1.0000
  O   O854      1.0  0.92745  0.24302  0.97772  1.0000
  H   H285      1.0  0.26914  0.33331  0.56223  1.0000
  H   H286      1.0  0.24267  0.37758  0.54186  1.0000
  O   O855      1.0  0.25519  0.31494  0.54931  1.0000
  H   H287      1.0  0.25512  0.86184  0.60536  1.0000
  H   H288      1.0  0.22382  0.86706  0.61183  1.0000
  O   O856      1.0  0.23516  0.90882  0.60549  1.0000
  H   H289      1.0  0.68048  0.72561  0.50170  1.0000
  H   H290      1.0  0.66603  0.70070  0.52822  1.0000
  O   O857      1.0  0.67324  0.67835  0.50991  1.0000
  H   H291      1.0  0.63803  0.79666  0.66683  1.0000
  H   H292      1.0  0.65127  0.85475  0.68613  1.0000
  O   O858      1.0  0.65097  0.83592  0.66586  1.0000
  H   H293      1.0  0.12956  0.65335  0.03343  1.0000
  H   H294      1.0  0.13639  0.76429  0.03397  1.0000
  O   O859      1.0  0.12154  0.73368  0.03517  1.0000
  H   H295      1.0  0.00685  0.89820  0.68141  1.0000
  H   H296      1.0  0.98984  0.89338  0.65008  1.0000
  O   O860      1.0  0.99718  0.86226  0.66817  1.0000
  H   H297      1.0  0.97829  0.57228  0.00435  1.0000
  H   H298      1.0  0.00245  0.55834  0.98654  1.0000
  O   O861      1.0  0.98365  0.60798  0.98902  1.0000
  H   H299      1.0  0.26737  0.52910  0.72967  1.0000
  H   H300      1.0  0.25901  0.54432  0.69880  1.0000
  O   O862      1.0  0.27360  0.50277  0.71081  1.0000
  H   H301      1.0  0.26785  0.77216  0.85400  1.0000
  H   H302      1.0  0.29787  0.75631  0.84161  1.0000
  O   O863      1.0  0.28404  0.72650  0.84466  1.0000
  H   H303      1.0  0.45514  0.69991  0.95852  1.0000
  H   H304      1.0  0.46003  0.72242  0.92765  1.0000
  O   O864      1.0  0.46167  0.74763  0.94766  1.0000
  H   H305      1.0  0.59563  0.10475  0.53501  1.0000
  H   H306      1.0  0.60157  0.99029  0.52017  1.0000
  O   O865      1.0  0.59478  0.03214  0.53671  1.0000
  H   H307      1.0  0.41102  0.57305  0.04132  1.0000
  H   H308      1.0  0.41250  0.59013  0.00821  1.0000
  O   O866      1.0  0.41255  0.54159  0.02285  1.0000
  H   H309      1.0  0.47959  0.26258  0.47633  1.0000
  H   H310      1.0  0.50880  0.20635  0.46809  1.0000
  O   O867      1.0  0.49321  0.26145  0.46165  1.0000
  H   H311      1.0  0.68827  0.12967  0.65966  1.0000
  H   H312      1.0  0.69702  0.02281  0.64443  1.0000
  O   O868      1.0  0.68301  0.06959  0.65900  1.0000
  H   H313      1.0  0.22436  0.62648  0.75570  1.0000
  H   H314      1.0  0.24937  0.60677  0.77635  1.0000
  O   O869      1.0  0.24568  0.61885  0.75635  1.0000
  H   H315      1.0  0.56508  0.08003  0.76665  1.0000
  H   H316      1.0  0.58282  0.02696  0.79382  1.0000
  O   O870      1.0  0.57707  0.01710  0.77476  1.0000
  H   H317      1.0  0.22104  0.98936  0.84678  1.0000
  H   H318      1.0  0.21161  0.98445  0.81602  1.0000
  O   O871      1.0  0.21138  0.02993  0.83102  1.0000
  H   H319      1.0  0.86947  0.16535  0.80242  1.0000
  H   H320      1.0  0.86520  0.08351  0.82236  1.0000
  O   O872      1.0  0.86760  0.14642  0.82192  1.0000
  H   H321      1.0  0.25544  0.09109  0.50783  1.0000
  H   H322      1.0  0.25459  0.13718  0.47637  1.0000
  O   O873      1.0  0.24184  0.12457  0.49146  1.0000
  H   H323      1.0  0.68238  0.95919  0.51933  1.0000
  H   H324      1.0  0.70607  0.88849  0.50198  1.0000
  O   O874      1.0  0.69053  0.95805  0.49959  1.0000
  H   H325      1.0  0.41676  0.75823  0.68774  1.0000
  H   H326      1.0  0.41573  0.75792  0.71780  1.0000
  O   O875      1.0  0.42079  0.79445  0.70293  1.0000
  H   H327      1.0  0.09669  0.88963  0.57283  1.0000
  H   H328      1.0  0.11884  0.85977  0.54945  1.0000
  O   O876      1.0  0.11151  0.91299  0.56456  1.0000
  H   H329      1.0  0.01891  0.64523  0.06558  1.0000
  H   H330      1.0  0.05095  0.56997  0.06714  1.0000
  O   O877      1.0  0.03751  0.62701  0.05654  1.0000
  H   H331      1.0  0.25704  0.50492  0.92931  1.0000
  H   H332      1.0  0.27221  0.56771  0.91682  1.0000
  O   O878      1.0  0.25278  0.56086  0.91530  1.0000
  H   H333      1.0  0.28840  0.15832  0.02570  1.0000
  H   H334      1.0  0.28922  0.12684  0.06705  1.0000
  O   O879      1.0  0.27220  0.20237  0.03583  1.0000
  H   H335      1.0  0.39982  0.96676  0.77820  1.0000
  H   H336      1.0  0.37405  0.00874  0.75669  1.0000
  O   O880      1.0  0.37820  0.00032  0.77778  1.0000
  H   H337      1.0  0.56862  0.46835  0.75100  1.0000
  H   H338      1.0  0.58945  0.49774  0.77098  1.0000
  O   O881      1.0  0.58754  0.44048  0.76025  1.0000
  H   H339      1.0  0.49844  0.99926  0.79079  1.0000
  H   H340      1.0  0.49115  0.08411  0.80823  1.0000
  O   O882      1.0  0.48125  0.04518  0.79825  1.0000
  H   H341      1.0  0.31076  0.97257  0.61027  1.0000
  H   H342      1.0  0.34324  0.92135  0.61491  1.0000
  O   O883      1.0  0.32587  0.90664  0.61133  1.0000
  H   H343      1.0  0.84117  0.44927  0.46174  1.0000
  H   H344      1.0  0.83864  0.34676  0.45944  1.0000
  O   O884      1.0  0.85145  0.37804  0.46641  1.0000
  H   H345      1.0  0.96387  0.93132  0.93159  1.0000
  H   H346      1.0  0.94678  0.02530  0.91382  1.0000
  O   O885      1.0  0.96564  0.97167  0.91543  1.0000
  H   H347      1.0  0.41070  0.29179  0.98716  1.0000
  H   H348      1.0  0.42283  0.18016  0.97675  1.0000
  O   O886      1.0  0.40547  0.23269  0.98369  1.0000
  H   H349      1.0  0.29409  0.42580  0.01405  1.0000
  H   H350      1.0  0.31882  0.40066  0.98954  1.0000
  O   O887      1.0  0.30553  0.37700  0.99987  1.0000
  H   H351      1.0  0.94308  0.19905  0.91720  1.0000
  H   H352      1.0  0.94784  0.23025  0.94700  1.0000
  O   O888      1.0  0.95619  0.22770  0.92699  1.0000
  H   H353      1.0  0.49798  0.45200  0.50849  1.0000
  H   H354      1.0  0.51467  0.36083  0.48556  1.0000
  O   O889      1.0  0.51552  0.42372  0.49406  1.0000
  H   H355      1.0  0.67769  0.60843  0.99885  1.0000
  H   H356      1.0  0.69616  0.61449  0.02382  1.0000
  O   O890      1.0  0.69743  0.57694  0.00601  1.0000
  H   H357      1.0  0.43704  0.97532  0.86695  1.0000
  H   H358      1.0  0.43136  0.93393  0.89959  1.0000
  O   O891      1.0  0.43703  0.91766  0.87953  1.0000
  H   H359      1.0  0.65312  0.02322  0.02804  1.0000
  H   H360      1.0  0.63461  0.95868  0.03252  1.0000
  O   O892      1.0  0.65598  0.95031  0.02864  1.0000
  H   H361      1.0  0.25497  0.73270  0.75950  1.0000
  H   H362      1.0  0.25937  0.81694  0.74239  1.0000
  O   O893      1.0  0.26114  0.79016  0.76124  1.0000
  H   H363      1.0  0.36754  0.91090  0.80228  1.0000
  H   H364      1.0  0.35871  0.82941  0.81666  1.0000
  O   O894      1.0  0.37666  0.84385  0.81429  1.0000
  H   H365      1.0  0.94596  0.10536  0.69085  1.0000
  H   H366      1.0  0.96253  0.99039  0.68223  1.0000
  O   O895      1.0  0.94332  0.04353  0.68541  1.0000
  H   H367      1.0  0.11233  0.32215  0.83246  1.0000
  H   H368      1.0  0.13394  0.34316  0.81103  1.0000
  O   O896      1.0  0.13133  0.31925  0.83065  1.0000
  H   H369      1.0  0.06340  0.52925  0.57254  1.0000
  H   H370      1.0  0.09156  0.43492  0.56731  1.0000
  O   O897      1.0  0.07929  0.49640  0.56013  1.0000
  H   H371      1.0  0.21527  0.39603  0.47451  1.0000
  H   H372      1.0  0.21390  0.44632  0.44481  1.0000
  O   O898      1.0  0.21762  0.37945  0.45425  1.0000
  H   H373      1.0  0.50891  0.43675  0.86110  1.0000
  H   H374      1.0  0.50783  0.48820  0.89170  1.0000
  O   O899      1.0  0.51221  0.42470  0.88171  1.0000
  H   H375      1.0  0.87326  0.22694  0.71294  1.0000
  H   H376      1.0  0.89118  0.10559  0.72523  1.0000
  O   O900      1.0  0.87308  0.15388  0.71726  1.0000
  H   H377      1.0  0.61310  0.22574  0.90730  1.0000
  H   H378      1.0  0.57924  0.27229  0.91289  1.0000
  O   O901      1.0  0.59644  0.28463  0.90526  1.0000
  H   H379      1.0  0.60320  0.38697  0.63456  1.0000
  H   H380      1.0  0.61821  0.36298  0.66420  1.0000
  O   O902      1.0  0.60458  0.41883  0.65260  1.0000
  H   H381      1.0  0.25446  0.55508  0.61691  1.0000
  H   H382      1.0  0.24052  0.51091  0.59253  1.0000
  O   O903      1.0  0.25153  0.49486  0.60943  1.0000
  H   H383      1.0  0.23293  0.10770  0.56997  1.0000
  H   H384      1.0  0.23182  0.99854  0.58186  1.0000
  O   O904      1.0  0.23659  0.03590  0.56598  1.0000
  H   H385      1.0  0.56449  0.29318  0.71781  1.0000
  H   H386      1.0  0.53973  0.29718  0.73531  1.0000
  O   O905      1.0  0.54422  0.32838  0.71786  1.0000
  H   H387      1.0  0.07642  0.76521  0.47803  1.0000
  H   H388      1.0  0.10066  0.73674  0.50442  1.0000
  O   O906      1.0  0.09410  0.77646  0.48608  1.0000
  H   H389      1.0  0.39733  0.23633  0.87380  1.0000
  H   H390      1.0  0.42867  0.24334  0.87867  1.0000
  O   O907      1.0  0.41016  0.25054  0.88881  1.0000
  H   H391      1.0  0.22325  0.39615  0.72229  1.0000
  H   H392      1.0  0.24493  0.39952  0.74506  1.0000
  O   O908      1.0  0.22511  0.42726  0.74092  1.0000
  H   H393      1.0  0.75100  0.79256  0.50410  1.0000
  H   H394      1.0  0.73276  0.77098  0.52606  1.0000
  O   O909      1.0  0.73342  0.78074  0.50661  1.0000
  H   H395      1.0  0.65605  0.19873  0.93576  1.0000
  H   H396      1.0  0.66702  0.17146  0.90342  1.0000
  O   O910      1.0  0.67058  0.15258  0.92275  1.0000
  H   H397      1.0  0.33244  0.29951  0.74345  1.0000
  H   H398      1.0  0.31820  0.39936  0.76197  1.0000
  O   O911      1.0  0.31939  0.32779  0.75931  1.0000
  H   H399      1.0  0.37718  0.21104  0.94661  1.0000
  H   H400      1.0  0.39479  0.21108  0.91868  1.0000
  O   O912      1.0  0.37586  0.21608  0.92598  1.0000
  H   H401      1.0  0.15861  0.11691  0.48015  1.0000
  H   H402      1.0  0.14602  0.06896  0.45671  1.0000
  O   O913      1.0  0.13962  0.11677  0.47252  1.0000
  H   H403      1.0  0.61759  0.99764  0.95827  1.0000
  H   H404      1.0  0.59070  0.08874  0.96702  1.0000
  O   O914      1.0  0.60016  0.05104  0.95082  1.0000
  H   H405      1.0  0.84060  0.96581  0.83596  1.0000
  H   H406      1.0  0.86887  0.93859  0.85008  1.0000
  O   O915      1.0  0.86059  0.96166  0.83180  1.0000
  H   H407      1.0  0.63343  0.71250  0.03954  1.0000
  H   H408      1.0  0.59594  0.83059  0.99296  1.0000
  O   O916      1.0  0.60211  0.80317  0.01230  1.0000
  H   H409      1.0  0.30313  0.06630  0.70131  1.0000
  H   H410      1.0  0.29353  0.16171  0.72322  1.0000
  O   O917      1.0  0.29102  0.13815  0.70337  1.0000
  H   H411      1.0  0.21613  0.25726  0.96837  1.0000
  H   H412      1.0  0.19884  0.18092  0.97014  1.0000
  O   O918      1.0  0.21639  0.19121  0.97491  1.0000
  H   H413      1.0  0.40878  0.25215  0.58082  1.0000
  H   H414      1.0  0.38617  0.24535  0.56053  1.0000
  O   O919      1.0  0.39459  0.29355  0.56612  1.0000
  H   H415      1.0  0.39592  0.92981  0.70886  1.0000
  H   H416      1.0  0.37867  0.04507  0.69898  1.0000
  O   O920      1.0  0.37938  0.99223  0.71317  1.0000
  H   H417      1.0  0.69476  0.90389  0.70880  1.0000
  H   H418      1.0  0.68805  0.01004  0.69087  1.0000
  O   O921      1.0  0.69715  0.97210  0.70728  1.0000
  H   H419      1.0  0.51589  0.00550  0.61095  1.0000
  H   H420      1.0  0.54151  0.00056  0.59416  1.0000
  O   O922      1.0  0.53576  0.98404  0.61278  1.0000
  H   H421      1.0  0.64054  0.87027  0.78522  1.0000
  H   H422      1.0  0.63022  0.89294  0.81816  1.0000
  O   O923      1.0  0.64756  0.86551  0.80509  1.0000
  H   H423      1.0  0.81459  0.60584  0.78540  1.0000
  H   H424      1.0  0.81330  0.53863  0.75625  1.0000
  O   O924      1.0  0.81904  0.53210  0.77828  1.0000
  H   H425      1.0  0.74385  0.76654  0.74668  1.0000
  H   H426      1.0  0.71475  0.76211  0.74420  1.0000
  O   O925      1.0  0.72804  0.76482  0.75836  1.0000
  H   H427      1.0  0.14175  0.14123  0.78863  1.0000
  H   H428      1.0  0.14635  0.23434  0.76873  1.0000
  O   O926      1.0  0.14157  0.17507  0.77035  1.0000
  H   H429      1.0  0.08806  0.48590  0.99301  1.0000
  H   H430      1.0  0.11472  0.48737  0.00919  1.0000
  O   O927      1.0  0.10903  0.45248  0.99405  1.0000
  H   H431      1.0  0.23882  0.89105  0.70188  1.0000
  H   H432      1.0  0.25992  0.95163  0.70588  1.0000
  O   O928      1.0  0.25883  0.88315  0.70610  1.0000
  H   H433      1.0  0.92496  0.11665  0.54649  1.0000
  H   H434      1.0  0.93228  0.00532  0.53573  1.0000
  O   O929      1.0  0.91940  0.05962  0.54714  1.0000
  H   H435      1.0  0.65064  0.79193  0.56644  1.0000
  H   H436      1.0  0.64787  0.68099  0.57200  1.0000
  O   O930      1.0  0.66013  0.71879  0.56430  1.0000
  H   H437      1.0  0.39956  0.94199  0.87166  1.0000
  H   H438      1.0  0.38094  0.92246  0.84875  1.0000
  O   O931      1.0  0.37995  0.96435  0.86460  1.0000
  H   H439      1.0  0.31537  0.96012  0.46893  1.0000
  H   H440      1.0  0.29191  0.99108  0.44823  1.0000
  O   O932      1.0  0.30131  0.93609  0.46029  1.0000
  H   H441      1.0  0.17740  0.56497  0.66551  1.0000
  H   H442      1.0  0.20397  0.47896  0.65272  1.0000
  O   O933      1.0  0.18267  0.51336  0.65139  1.0000
  H   H443      1.0  0.57279  0.25237  0.82486  1.0000
  H   H444      1.0  0.54058  0.28563  0.82970  1.0000
  O   O934      1.0  0.55701  0.22352  0.82525  1.0000
  H   H445      1.0  0.72101  0.75378  0.97482  1.0000
  H   H446      1.0  0.75059  0.66801  0.97643  1.0000
  O   O935      1.0  0.73871  0.72668  0.96463  1.0000
  H   H447      1.0  0.43521  0.63235  0.84588  1.0000
  H   H448      1.0  0.43276  0.53461  0.86410  1.0000
  O   O936      1.0  0.43078  0.60657  0.86382  1.0000
  H   H449      1.0  0.64318  0.44560  0.72565  1.0000
  H   H450      1.0  0.62303  0.40130  0.74161  1.0000
  O   O937      1.0  0.64248  0.38097  0.73454  1.0000
  H   H451      1.0  0.04952  0.56132  0.02048  1.0000
  H   H452      1.0  0.04732  0.46948  0.00399  1.0000
  O   O938      1.0  0.05330  0.52992  0.00187  1.0000
  H   H453      1.0  0.45106  0.14340  0.77382  1.0000
  H   H454      1.0  0.43026  0.24057  0.76218  1.0000
  O   O939      1.0  0.44778  0.18788  0.75756  1.0000
  H   H455      1.0  0.22420  0.87038  0.88002  1.0000
  H   H456      1.0  0.24353  0.93511  0.88340  1.0000
  O   O940      1.0  0.24127  0.88249  0.87008  1.0000
  H   H457      1.0  0.18912  0.60347  0.58868  1.0000
  H   H458      1.0  0.17522  0.60558  0.61943  1.0000
  O   O941      1.0  0.17388  0.63876  0.60177  1.0000
  H   H459      1.0  0.88737  0.04271  0.93661  1.0000
  H   H460      1.0  0.90628  0.92690  0.93501  1.0000
  O   O942      1.0  0.90715  0.99299  0.93204  1.0000
  H   H461      1.0  0.64353  0.24047  0.54979  1.0000
  H   H462      1.0  0.62700  0.35891  0.55091  1.0000
  O   O943      1.0  0.62498  0.29324  0.55171  1.0000
  H   H463      1.0  0.31343  0.02939  0.86058  1.0000
  H   H464      1.0  0.31794  0.93826  0.87776  1.0000
  O   O944      1.0  0.30373  0.98053  0.86406  1.0000
  H   H465      1.0  0.71188  0.86232  0.63344  1.0000
  H   H466      1.0  0.72670  0.91584  0.61006  1.0000
  O   O945      1.0  0.72048  0.91964  0.62945  1.0000
  H   H467      1.0  0.82855  0.71756  0.82204  1.0000
  H   H468      1.0  0.79743  0.74221  0.81487  1.0000
  O   O946      1.0  0.81715  0.71439  0.80497  1.0000
  H   H469      1.0  0.80355  0.11505  0.98624  1.0000
  H   H470      1.0  0.81694  0.15128  0.01405  1.0000
  O   O947      1.0  0.82132  0.10315  0.99726  1.0000
  H   H471      1.0  0.10101  0.28205  0.54947  1.0000
  H   H472      1.0  0.08348  0.29571  0.57851  1.0000
  O   O948      1.0  0.10118  0.28607  0.57089  1.0000
  H   H473      1.0  0.84993  0.10696  0.96564  1.0000
  H   H474      1.0  0.83520  0.14851  0.93530  1.0000
  O   O949      1.0  0.85279  0.12239  0.94515  1.0000
  H   H475      1.0  0.31363  0.30894  0.67909  1.0000
  H   H476      1.0  0.30064  0.21785  0.68029  1.0000
  O   O950      1.0  0.30589  0.26591  0.66818  1.0000
  H   H477      1.0  0.10585  0.48751  0.48808  1.0000
  H   H478      1.0  0.11587  0.41861  0.46173  1.0000
  O   O951      1.0  0.12000  0.42263  0.48193  1.0000
  H   H479      1.0  0.13291  0.97569  0.06803  1.0000
  H   H480      1.0  0.10875  0.99702  0.04355  1.0000
  O   O952      1.0  0.12807  0.95145  0.04946  1.0000
  H   H481      1.0  0.69511  0.72022  0.44117  1.0000
  H   H482      1.0  0.67865  0.72005  0.41355  1.0000
  O   O953      1.0  0.68071  0.76443  0.42847  1.0000
  H   H483      1.0  0.34704  0.29470  0.52184  1.0000
  H   H484      1.0  0.32690  0.40686  0.52284  1.0000
  O   O954      1.0  0.33761  0.34756  0.50872  1.0000
  H   H485      1.0  0.54246  0.75242  0.72572  1.0000
  H   H486      1.0  0.51699  0.85089  0.72913  1.0000
  O   O955      1.0  0.52742  0.79250  0.73996  1.0000
  H   H487      1.0  0.29426  0.54977  0.63848  1.0000
  H   H488      1.0  0.27723  0.63635  0.61523  1.0000
  O   O956      1.0  0.27542  0.60570  0.63503  1.0000
  H   H489      1.0  0.01997  0.01572  0.90635  1.0000
  H   H490      1.0  0.99955  0.95232  0.90577  1.0000
  O   O957      1.0  0.01906  0.94937  0.90384  1.0000
  H   H491      1.0  0.89855  0.17403  0.45497  1.0000
  H   H492      1.0  0.88218  0.28551  0.46501  1.0000
  O   O958      1.0  0.89964  0.22586  0.46728  1.0000
  H   H493      1.0  0.43303  0.05725  0.52607  1.0000
  H   H494      1.0  0.45002  0.03516  0.49868  1.0000
  O   O959      1.0  0.43789  0.09161  0.50989  1.0000
  H   H495      1.0  0.41647  0.34248  0.67080  1.0000
  H   H496      1.0  0.42791  0.33033  0.70239  1.0000
  O   O960      1.0  0.41937  0.30117  0.68931  1.0000
  H   H497      1.0  0.48390  0.36839  0.90418  1.0000
  H   H498      1.0  0.45463  0.34697  0.91208  1.0000
  O   O961      1.0  0.47549  0.31789  0.90859  1.0000
  H   H499      1.0  0.11043  0.80864  0.79586  1.0000
  H   H500      1.0  0.09836  0.74218  0.77688  1.0000
  O   O962      1.0  0.11062  0.74072  0.79539  1.0000
  H   H501      1.0  0.95935  0.79823  0.79888  1.0000
  H   H502      1.0  0.99001  0.73823  0.80383  1.0000
  O   O963      1.0  0.97510  0.74178  0.79086  1.0000
  H   H503      1.0  0.92259  0.73525  0.94936  1.0000
  H   H504      1.0  0.91755  0.77820  0.91772  1.0000
  O   O964      1.0  0.92227  0.79057  0.93641  1.0000
  H   H505      1.0  0.20169  0.20139  0.90038  1.0000
  H   H506      1.0  0.16974  0.24032  0.89880  1.0000
  O   O965      1.0  0.18608  0.18121  0.89459  1.0000
  H   H507      1.0  0.38560  0.28956  0.63701  1.0000
  H   H508      1.0  0.36979  0.21561  0.63015  1.0000
  O   O966      1.0  0.38875  0.21757  0.63754  1.0000
  H   H509      1.0  0.87326  0.32177  0.94284  1.0000
  H   H510      1.0  0.87372  0.42048  0.96014  1.0000
  O   O967      1.0  0.87762  0.34521  0.96215  1.0000
  H   H511      1.0  0.18208  0.24751  0.72131  1.0000
  H   H512      1.0  0.15395  0.34068  0.72955  1.0000
  O   O968      1.0  0.16605  0.30158  0.71389  1.0000
  H   H513      1.0  0.64614  0.45124  0.56387  1.0000
  H   H514      1.0  0.63467  0.49638  0.53722  1.0000
  O   O969      1.0  0.62714  0.48584  0.55553  1.0000
  H   H515      1.0  0.69262  0.59243  0.60844  1.0000
  H   H516      1.0  0.69067  0.65180  0.58281  1.0000
  O   O970      1.0  0.70309  0.63649  0.59951  1.0000
  H   H517      1.0  0.74149  0.59092  0.60439  1.0000
  H   H518      1.0  0.77456  0.55339  0.59617  1.0000
  O   O971      1.0  0.76125  0.59139  0.60958  1.0000
  H   H519      1.0  0.75703  0.24574  0.61287  1.0000
  H   H520      1.0  0.76971  0.25771  0.64497  1.0000
  O   O972      1.0  0.76231  0.29344  0.62577  1.0000
  H   H521      1.0  0.30342  0.12587  0.81954  1.0000
  H   H522      1.0  0.33300  0.12277  0.82211  1.0000
  O   O973      1.0  0.31547  0.12636  0.83467  1.0000
  H   H523      1.0  0.62121  0.55596  0.81188  1.0000
  H   H524      1.0  0.64737  0.58443  0.81252  1.0000
  O   O974      1.0  0.63840  0.54437  0.82169  1.0000
  H   H525      1.0  0.08306  0.75808  0.93612  1.0000
  H   H526      1.0  0.09577  0.83474  0.94027  1.0000
  O   O975      1.0  0.09731  0.77169  0.94877  1.0000
  H   H527      1.0  0.23708  0.38032  0.97495  1.0000
  H   H528      1.0  0.20786  0.43148  0.96068  1.0000
  O   O976      1.0  0.21715  0.37934  0.97687  1.0000
  H   H529      1.0  0.68927  0.53976  0.73911  1.0000
  H   H530      1.0  0.71144  0.52691  0.76490  1.0000
  O   O977      1.0  0.70453  0.49443  0.74949  1.0000
  H   H531      1.0  0.38055  0.76717  0.98826  1.0000
  H   H532      1.0  0.39537  0.84031  0.99569  1.0000
  O   O978      1.0  0.39885  0.76336  0.99818  1.0000
  H   H533      1.0  0.48705  0.15540  0.50987  1.0000
  H   H534      1.0  0.45306  0.17586  0.51215  1.0000
  O   O979      1.0  0.46716  0.20944  0.51224  1.0000
  H   H535      1.0  0.46918  0.67165  0.53539  1.0000
  H   H536      1.0  0.45411  0.78144  0.54356  1.0000
  O   O980      1.0  0.47065  0.73725  0.53447  1.0000
  H   H537      1.0  0.56887  0.10602  0.66178  1.0000
  H   H538      1.0  0.55240  0.06923  0.63888  1.0000
  O   O981      1.0  0.56717  0.09950  0.64169  1.0000
  H   H539      1.0  0.60243  0.99266  0.63178  1.0000
  H   H540      1.0  0.63161  0.92470  0.64409  1.0000
  O   O982      1.0  0.62249  0.96730  0.62707  1.0000
  H   H541      1.0  0.69065  0.13136  0.01565  1.0000
  H   H542      1.0  0.70631  0.08133  0.98813  1.0000
  O   O983      1.0  0.69100  0.07868  0.00001  1.0000
  H   H543      1.0  0.62653  0.22750  0.86163  1.0000
  H   H544      1.0  0.62243  0.12497  0.86627  1.0000
  O   O984      1.0  0.63731  0.15591  0.86402  1.0000
  H   H545      1.0  0.27809  0.77725  0.68705  1.0000
  H   H546      1.0  0.28251  0.69518  0.65990  1.0000
  O   O985      1.0  0.29002  0.71030  0.67758  1.0000
  H   H547      1.0  0.43316  0.86234  0.62141  1.0000
  H   H548      1.0  0.42024  0.77893  0.63238  1.0000
  O   O986      1.0  0.41675  0.83691  0.61931  1.0000
  H   H549      1.0  0.20769  0.28475  0.57780  1.0000
  H   H550      1.0  0.23881  0.26458  0.57027  1.0000
  O   O987      1.0  0.22724  0.23318  0.58231  1.0000
  H   H551      1.0  0.73145  0.66755  0.93675  1.0000
  H   H552      1.0  0.75098  0.60946  0.91116  1.0000
  O   O988      1.0  0.73235  0.62655  0.91977  1.0000
  H   H553      1.0  0.20256  0.42690  0.76862  1.0000
  H   H554      1.0  0.20669  0.37766  0.79788  1.0000
  O   O989      1.0  0.19191  0.42215  0.78597  1.0000
  H   H555      1.0  0.67664  0.44833  0.59870  1.0000
  H   H556      1.0  0.68379  0.32931  0.59251  1.0000
  O   O990      1.0  0.68000  0.39591  0.58404  1.0000
  H   H557      1.0  0.73190  0.71780  0.57321  1.0000
  H   H558      1.0  0.74958  0.79019  0.57289  1.0000
  O   O991      1.0  0.73147  0.78338  0.56828  1.0000
  H   H559      1.0  0.80640  0.40197  0.57949  1.0000
  H   H560      1.0  0.82727  0.46369  0.58695  1.0000
  O   O992      1.0  0.80756  0.46965  0.58128  1.0000
  H   H561      1.0  0.71771  0.25272  0.85577  1.0000
  H   H562      1.0  0.68268  0.27578  0.85281  1.0000
  O   O993      1.0  0.69953  0.25963  0.86560  1.0000
  H   H563      1.0  0.29100  0.65365  0.99403  1.0000
  H   H564      1.0  0.31933  0.58006  0.00186  1.0000
  O   O994      1.0  0.30787  0.61561  0.98545  1.0000
  H   H565      1.0  0.70821  0.91934  0.80713  1.0000
  H   H566      1.0  0.72333  0.85403  0.78197  1.0000
  O   O995      1.0  0.72621  0.89088  0.79785  1.0000
  H   H567      1.0  0.21832  0.33169  0.88847  1.0000
  H   H568      1.0  0.24762  0.24836  0.89797  1.0000
  O   O996      1.0  0.22709  0.26626  0.89755  1.0000
  H   H569      1.0  0.50893  0.83309  0.96747  1.0000
  H   H570      1.0  0.48724  0.77856  0.96328  1.0000
  O   O997      1.0  0.49759  0.80017  0.97826  1.0000
  H   H571      1.0  0.56752  0.66999  0.44288  1.0000
  H   H572      1.0  0.55952  0.76768  0.46011  1.0000
  O   O998      1.0  0.56941  0.74013  0.44352  1.0000
  H   H573      1.0  0.28956  0.06440  0.54157  1.0000
  H   H574      1.0  0.27023  0.99906  0.54597  1.0000
  O   O999      1.0  0.28256  0.01659  0.53279  1.0000
  H   H575      1.0  0.89907  0.68928  0.97879  1.0000
  H   H576      1.0  0.92293  0.69549  0.99541  1.0000
  O   O1000     1.0  0.91968  0.67218  0.97692  1.0000
  H   H577      1.0  0.80892  0.33733  0.97220  1.0000
  H   H578      1.0  0.78047  0.40894  0.95905  1.0000
  O   O1001     1.0  0.80080  0.37538  0.95479  1.0000
  H   H579      1.0  0.80260  0.30320  0.52245  1.0000
  H   H580      1.0  0.80989  0.25984  0.55266  1.0000
  O   O1002     1.0  0.81759  0.25736  0.53357  1.0000
  H   H581      1.0  0.06243  0.46502  0.63496  1.0000
  H   H582      1.0  0.07553  0.35850  0.62294  1.0000
  O   O1003     1.0  0.07157  0.42831  0.61832  1.0000
  H   H583      1.0  0.07463  0.14639  0.75791  1.0000
  H   H584      1.0  0.05894  0.08079  0.77173  1.0000
  O   O1004     1.0  0.07673  0.07581  0.76396  1.0000
  H   H585      1.0  0.35166  0.06944  0.49313  1.0000
  H   H586      1.0  0.36803  0.07623  0.51979  1.0000
  O   O1005     1.0  0.37045  0.03857  0.50225  1.0000
  H   H587      1.0  0.28838  0.11895  0.62403  1.0000
  H   H588      1.0  0.31907  0.11589  0.61893  1.0000
  O   O1006     1.0  0.30339  0.09862  0.61049  1.0000
  H   H589      1.0  0.61052  0.19959  0.69663  1.0000
  H   H590      1.0  0.61824  0.13936  0.72485  1.0000
  O   O1007     1.0  0.60213  0.17931  0.71405  1.0000
  H   H591      1.0  0.31423  0.88715  0.83366  1.0000
  H   H592      1.0  0.31301  0.84195  0.80400  1.0000
  O   O1008     1.0  0.32304  0.82436  0.82248  1.0000
  H   H593      1.0  0.11623  0.74002  0.87316  1.0000
  H   H594      1.0  0.14545  0.71318  0.85675  1.0000
  O   O1009     1.0  0.13557  0.74188  0.87422  1.0000
  H   H595      1.0  0.48438  0.98732  0.45253  1.0000
  H   H596      1.0  0.49367  0.06575  0.43120  1.0000
  O   O1010     1.0  0.50085  0.00800  0.44528  1.0000
  H   H597      1.0  0.22586  0.99100  0.63367  1.0000
  H   H598      1.0  0.22963  0.06050  0.65705  1.0000
  O   O1011     1.0  0.21696  0.02603  0.65258  1.0000
  H   H599      1.0  0.28148  0.37599  0.97352  1.0000
  H   H600      1.0  0.27123  0.34466  0.94426  1.0000
  O   O1012     1.0  0.26612  0.39730  0.95852  1.0000
  H   H601      1.0  0.43991  0.61474  0.46482  1.0000
  H   H602      1.0  0.44964  0.60264  0.43246  1.0000
  O   O1013     1.0  0.45154  0.63167  0.45067  1.0000
  H   H603      1.0  0.22348  0.98222  0.54131  1.0000
  H   H604      1.0  0.19458  0.99760  0.52713  1.0000
  O   O1014     1.0  0.21498  0.94683  0.52826  1.0000
  H   H605      1.0  0.99085  0.49457  0.80673  1.0000
  H   H606      1.0  0.97866  0.61568  0.80458  1.0000
  O   O1015     1.0  0.98547  0.55971  0.81781  1.0000
  H   H607      1.0  0.12043  0.70093  0.55975  1.0000
  H   H608      1.0  0.13714  0.69226  0.53121  1.0000
  O   O1016     1.0  0.11732  0.72783  0.54051  1.0000
  H   H609      1.0  0.57073  0.59381  0.81110  1.0000
  H   H610      1.0  0.57889  0.66887  0.79344  1.0000
  O   O1017     1.0  0.58273  0.59418  0.79323  1.0000
  H   H611      1.0  0.42364  0.03497  0.66445  1.0000
  H   H612      1.0  0.39921  0.12886  0.66635  1.0000
  O   O1018     1.0  0.40796  0.06845  0.67677  1.0000
  H   H613      1.0  0.08165  0.81893  0.97627  1.0000
  H   H614      1.0  0.09003  0.79905  0.00668  1.0000
  O   O1019     1.0  0.07436  0.84863  0.99615  1.0000
  H   H615      1.0  0.18399  0.58471  0.93477  1.0000
  H   H616      1.0  0.20959  0.50553  0.92345  1.0000
  O   O1020     1.0  0.19318  0.51074  0.93594  1.0000
  H   H617      1.0  0.32786  0.75282  0.56343  1.0000
  H   H618      1.0  0.33184  0.79516  0.59027  1.0000
  O   O1021     1.0  0.33421  0.72681  0.58202  1.0000
  H   H619      1.0  0.53382  0.89806  0.48895  1.0000
  H   H620      1.0  0.52442  0.80886  0.49351  1.0000
  O   O1022     1.0  0.54018  0.82680  0.49052  1.0000
  H   H621      1.0  0.22038  0.75055  0.68899  1.0000
  H   H622      1.0  0.21754  0.67373  0.66875  1.0000
  O   O1023     1.0  0.21976  0.68194  0.68858  1.0000
  H   H623      1.0  0.84313  0.04130  0.67737  1.0000
  H   H624      1.0  0.84711  0.11929  0.69891  1.0000
  O   O1024     1.0  0.83559  0.11194  0.68195  1.0000
  H   H625      1.0  0.55444  0.03513  0.43625  1.0000
  H   H626      1.0  0.57409  0.01185  0.46097  1.0000
  O   O1025     1.0  0.56190  0.06589  0.45104  1.0000
  H   H627      1.0  0.46884  0.47848  0.78370  1.0000
  H   H628      1.0  0.47232  0.36873  0.78375  1.0000
  O   O1026     1.0  0.46490  0.42665  0.79701  1.0000
  H   H629      1.0  0.30149  0.58921  0.94689  1.0000
  H   H630      1.0  0.31161  0.60285  0.91555  1.0000
  O   O1027     1.0  0.30303  0.56290  0.92780  1.0000
  H   H631      1.0  0.44181  0.61802  0.65072  1.0000
  H   H632      1.0  0.40858  0.64206  0.64566  1.0000
  O   O1028     1.0  0.42152  0.66605  0.65738  1.0000
  H   H633      1.0  0.73669  0.51611  0.94691  1.0000
  H   H634      1.0  0.72807  0.53077  0.97846  1.0000
  O   O1029     1.0  0.74047  0.48029  0.96534  1.0000
  H   H635      1.0  0.94158  0.39045  0.50424  1.0000
  H   H636      1.0  0.91351  0.40030  0.51956  1.0000
  O   O1030     1.0  0.93426  0.37510  0.52231  1.0000
  H   H637      1.0  0.20050  0.67089  0.01818  1.0000
  H   H638      1.0  0.23429  0.59914  0.02058  1.0000
  O   O1031     1.0  0.21622  0.63507  0.03050  1.0000
  H   H639      1.0  0.95899  0.55160  0.95731  1.0000
  H   H640      1.0  0.97797  0.44848  0.94274  1.0000
  O   O1032     1.0  0.96136  0.51399  0.93929  1.0000
  H   H641      1.0  0.45541  0.99603  0.62656  1.0000
  H   H642      1.0  0.47071  0.91419  0.64718  1.0000
  O   O1033     1.0  0.45120  0.94883  0.63995  1.0000
  H   H643      1.0  0.74188  0.21603  0.91519  1.0000
  H   H644      1.0  0.75640  0.10281  0.92115  1.0000
  O   O1034     1.0  0.75930  0.15677  0.91237  1.0000
  H   H645      1.0  0.87707  0.15115  0.50019  1.0000
  H   H646      1.0  0.89269  0.07070  0.51947  1.0000
  O   O1035     1.0  0.88247  0.07742  0.50142  1.0000
  H   H647      1.0  0.73418  0.63772  0.83334  1.0000
  H   H648      1.0  0.72057  0.70374  0.86017  1.0000
  O   O1036     1.0  0.73863  0.65525  0.85166  1.0000
  H   H649      1.0  0.66097  0.67350  0.75888  1.0000
  H   H650      1.0  0.64933  0.65769  0.73029  1.0000
  O   O1037     1.0  0.66490  0.67387  0.73863  1.0000
  H   H651      1.0  0.11935  0.93918  0.81871  1.0000
  H   H652      1.0  0.10313  0.98549  0.79023  1.0000
  O   O1038     1.0  0.11555  0.92464  0.79876  1.0000
  H   H653      1.0  0.07755  0.10526  0.94085  1.0000
  H   H654      1.0  0.07614  0.21599  0.92736  1.0000
  O   O1039     1.0  0.06813  0.17655  0.94102  1.0000
  H   H655      1.0  0.40232  0.68767  0.88262  1.0000
  H   H656      1.0  0.37407  0.77487  0.89786  1.0000
  O   O1040     1.0  0.39284  0.72059  0.90026  1.0000
  H   H657      1.0  0.14988  0.27297  0.58531  1.0000
  H   H658      1.0  0.17244  0.18061  0.59755  1.0000
  O   O1041     1.0  0.16382  0.21059  0.57922  1.0000
  H   H659      1.0  0.18581  0.97037  0.91772  1.0000
  H   H660      1.0  0.19833  0.85102  0.92465  1.0000
  O   O1042     1.0  0.19337  0.89960  0.90904  1.0000
  H   H661      1.0  0.73167  0.36096  0.64120  1.0000
  H   H662      1.0  0.72376  0.42030  0.67032  1.0000
  O   O1043     1.0  0.71599  0.38821  0.65472  1.0000
  H   H663      1.0  0.85503  0.29407  0.98373  1.0000
  H   H664      1.0  0.84681  0.25757  0.01442  1.0000
  O   O1044     1.0  0.83897  0.29748  0.99779  1.0000
  H   H665      1.0  0.08333  0.14816  0.85457  1.0000
  H   H666      1.0  0.05151  0.20797  0.86122  1.0000
  O   O1045     1.0  0.07137  0.21433  0.85810  1.0000
  H   H667      1.0  0.20167  0.06884  0.45294  1.0000
  H   H668      1.0  0.21107  0.09092  0.48194  1.0000
  O   O1046     1.0  0.19555  0.11588  0.46900  1.0000
  H   H669      1.0  0.44790  0.41711  0.59044  1.0000
  H   H670      1.0  0.41971  0.50873  0.59135  1.0000
  O   O1047     1.0  0.43674  0.47062  0.60153  1.0000
  H   H671      1.0  0.61296  0.93143  0.75740  1.0000
  H   H672      1.0  0.63774  0.95094  0.74812  1.0000
  O   O1048     1.0  0.63081  0.89646  0.74900  1.0000
  H   H673      1.0  0.84766  0.99497  0.56940  1.0000
  H   H674      1.0  0.85519  0.91363  0.59287  1.0000
  O   O1049     1.0  0.84082  0.97558  0.58775  1.0000
  H   H675      1.0  0.33711  0.68091  0.98255  1.0000
  H   H676      1.0  0.33358  0.77466  0.96556  1.0000
  O   O1050     1.0  0.34793  0.72141  0.97711  1.0000
  H   H677      1.0  0.44153  0.34864  0.84829  1.0000
  H   H678      1.0  0.43487  0.43335  0.82712  1.0000
  O   O1051     1.0  0.42774  0.42016  0.84467  1.0000
  H   H679      1.0  0.16306  0.44736  0.95847  1.0000
  H   H680      1.0  0.13338  0.44023  0.96741  1.0000
  O   O1052     1.0  0.14948  0.41507  0.95392  1.0000
  H   H681      1.0  0.51355  0.48095  0.81640  1.0000
  H   H682      1.0  0.49462  0.41024  0.82031  1.0000
  O   O1053     1.0  0.51176  0.42454  0.82760  1.0000
  H   H683      1.0  0.96189  0.64415  0.72162  1.0000
  H   H684      1.0  0.97370  0.74173  0.72211  1.0000
  O   O1054     1.0  0.95830  0.71696  0.71721  1.0000
  H   H685      1.0  0.24386  0.49826  0.85110  1.0000
  H   H686      1.0  0.27281  0.40533  0.84642  1.0000
  O   O1055     1.0  0.25790  0.46057  0.83583  1.0000
  H   H687      1.0  0.69875  0.06487  0.85089  1.0000
  H   H688      1.0  0.70751  0.13986  0.87113  1.0000
  O   O1056     1.0  0.70886  0.06512  0.86875  1.0000
  H   H689      1.0  0.78016  0.76252  0.64091  1.0000
  H   H690      1.0  0.78039  0.67456  0.61883  1.0000
  O   O1057     1.0  0.78999  0.71885  0.62571  1.0000
  H   H691      1.0  0.50115  0.59609  0.92207  1.0000
  H   H692      1.0  0.51899  0.54063  0.94820  1.0000
  O   O1058     1.0  0.52142  0.55634  0.92876  1.0000
  H   H693      1.0  0.35071  0.17713  0.01337  1.0000
  H   H694      1.0  0.32028  0.25014  0.00368  1.0000
  O   O1059     1.0  0.33105  0.17828  0.00844  1.0000
  H   H695      1.0  0.62140  0.23875  0.61747  1.0000
  H   H696      1.0  0.61310  0.29494  0.58883  1.0000
  O   O1060     1.0  0.60795  0.30062  0.60877  1.0000
  H   H697      1.0  0.83338  0.26867  0.82110  1.0000
  H   H698      1.0  0.80559  0.35981  0.82057  1.0000
  O   O1061     1.0  0.81783  0.30489  0.83355  1.0000
  H   H699      1.0  0.53808  0.04858  0.49555  1.0000
  H   H700      1.0  0.51245  0.04961  0.47634  1.0000
  O   O1062     1.0  0.51851  0.04900  0.49690  1.0000
  H   H701      1.0  0.39842  0.16474  0.00802  1.0000
  H   H702      1.0  0.40220  0.11769  0.03738  1.0000
  O   O1063     1.0  0.39203  0.12040  0.01964  1.0000
  H   H703      1.0  0.19626  0.11710  0.75943  1.0000
  H   H704      1.0  0.21431  0.16900  0.77317  1.0000
  O   O1064     1.0  0.20898  0.15232  0.75516  1.0000
  H   H705      1.0  0.80212  0.85550  0.41754  1.0000
  H   H706      1.0  0.80644  0.74931  0.41294  1.0000
  O   O1065     1.0  0.79418  0.80591  0.42433  1.0000
  H   H707      1.0  0.17372  0.07341  0.83296  1.0000
  H   H708      1.0  0.14942  0.17666  0.82666  1.0000
  O   O1066     1.0  0.15372  0.10330  0.82490  1.0000
  H   H709      1.0  0.16449  0.89075  0.50220  1.0000
  H   H710      1.0  0.13707  0.89008  0.48264  1.0000
  O   O1067     1.0  0.15713  0.85331  0.48962  1.0000
  H   H711      1.0  0.53248  0.33125  0.90643  1.0000
  H   H712      1.0  0.53749  0.28558  0.93879  1.0000
  O   O1068     1.0  0.54522  0.27806  0.91844  1.0000
  H   H713      1.0  0.55527  0.83591  0.94857  1.0000
  H   H714      1.0  0.57740  0.75211  0.96651  1.0000
  O   O1069     1.0  0.57416  0.81718  0.95883  1.0000
  H   H715      1.0  0.31014  0.87148  0.75711  1.0000
  H   H716      1.0  0.28318  0.85930  0.77192  1.0000
  O   O1070     1.0  0.29490  0.90338  0.77137  1.0000
  H   H717      1.0  0.92773  0.78847  0.72615  1.0000
  H   H718      1.0  0.89298  0.83093  0.73010  1.0000
  O   O1071     1.0  0.90972  0.84740  0.73091  1.0000
  H   H719      1.0  0.61076  0.37910  0.48364  1.0000
  H   H720      1.0  0.59030  0.49586  0.47353  1.0000
  O   O1072     1.0  0.60579  0.45402  0.48516  1.0000
  H   H721      1.0  0.92905  0.57201  0.56781  1.0000
  H   H722      1.0  0.92913  0.49025  0.54735  1.0000
  O   O1073     1.0  0.91730  0.53626  0.56181  1.0000
  H   H723      1.0  0.74315  0.95786  0.86327  1.0000
  H   H724      1.0  0.76390  0.84353  0.85614  1.0000
  O   O1074     1.0  0.76133  0.90427  0.86866  1.0000
  H   H725      1.0  0.75417  0.20191  0.55841  1.0000
  H   H726      1.0  0.74999  0.29834  0.54333  1.0000
  O   O1075     1.0  0.75473  0.23027  0.53992  1.0000
  H   H727      1.0  0.27593  0.57555  0.03902  1.0000
  H   H728      1.0  0.26331  0.50235  0.04964  1.0000
  O   O1076     1.0  0.27121  0.51999  0.03206  1.0000
  H   H729      1.0  0.86340  0.44659  0.88089  1.0000
  H   H730      1.0  0.89173  0.45846  0.89048  1.0000
  O   O1077     1.0  0.87798  0.47278  0.87603  1.0000
  H   H731      1.0  0.80170  0.57609  0.45056  1.0000
  H   H732      1.0  0.79993  0.56534  0.48195  1.0000
  O   O1078     1.0  0.81312  0.57586  0.46758  1.0000
  H   H733      1.0  0.03346  0.13328  0.98339  1.0000
  H   H734      1.0  0.01064  0.07571  0.97575  1.0000
  O   O1079     1.0  0.01434  0.13716  0.98044  1.0000
  H   H735      1.0  0.79113  0.77787  0.58974  1.0000
  H   H736      1.0  0.78344  0.88661  0.57992  1.0000
  O   O1080     1.0  0.78626  0.81623  0.57215  1.0000
  H   H737      1.0  0.54968  0.08515  0.01027  1.0000
  H   H738      1.0  0.53071  0.11427  0.04646  1.0000
  O   O1081     1.0  0.53660  0.05239  0.01925  1.0000
  H   H739      1.0  0.89586  0.95178  0.89275  1.0000
  H   H740      1.0  0.89667  0.84231  0.88188  1.0000
  O   O1082     1.0  0.89350  0.90945  0.87633  1.0000
  H   H741      1.0  0.37420  0.91217  0.51303  1.0000
  H   H742      1.0  0.38864  0.78684  0.50758  1.0000
  O   O1083     1.0  0.37437  0.84375  0.51843  1.0000
  H   H743      1.0  0.13575  0.92233  0.59709  1.0000
  H   H744      1.0  0.14042  0.00071  0.61533  1.0000
  O   O1084     1.0  0.14922  0.92767  0.61213  1.0000
  H   H745      1.0  0.41428  0.73130  0.80417  1.0000
  H   H746      1.0  0.44442  0.73594  0.81105  1.0000
  O   O1085     1.0  0.43296  0.68722  0.81007  1.0000
  H   H747      1.0  0.34219  0.23174  0.78485  1.0000
  H   H748      1.0  0.36134  0.10393  0.78860  1.0000
  O   O1086     1.0  0.35201  0.17269  0.79800  1.0000
  H   H749      1.0  0.27748  0.30137  0.51724  1.0000
  H   H750      1.0  0.30829  0.29871  0.50265  1.0000
  O   O1087     1.0  0.29485  0.26181  0.50534  1.0000
  H   H751      1.0  0.69939  0.24732  0.41065  1.0000
  H   H752      1.0  0.69775  0.35376  0.42141  1.0000
  O   O1088     1.0  0.69313  0.29546  0.42768  1.0000
  H   H753      1.0  0.31365  0.51904  0.56286  1.0000
  H   H754      1.0  0.28675  0.54834  0.54176  1.0000
  O   O1089     1.0  0.30446  0.49307  0.54688  1.0000
  H   H755      1.0  0.55747  0.07129  0.70525  1.0000
  H   H756      1.0  0.58784  0.07912  0.70650  1.0000
  O   O1090     1.0  0.57471  0.05612  0.69470  1.0000
  H   H757      1.0  0.87231  0.67430  0.01075  1.0000
  H   H758      1.0  0.85130  0.72470  0.98772  1.0000
  O   O1091     1.0  0.86962  0.66792  0.98998  1.0000
  H   H759      1.0  0.75557  0.48544  0.87704  1.0000
  H   H760      1.0  0.72436  0.50406  0.86978  1.0000
  O   O1092     1.0  0.74273  0.45026  0.87084  1.0000
  H   H761      1.0  0.27404  0.69297  0.52374  1.0000
  H   H762      1.0  0.24397  0.68661  0.53122  1.0000
  O   O1093     1.0  0.26323  0.66432  0.53722  1.0000
  H   H763      1.0  0.62974  0.07699  0.63102  1.0000
  H   H764      1.0  0.65072  0.12310  0.64327  1.0000
  O   O1094     1.0  0.63330  0.14182  0.63099  1.0000
  H   H765      1.0  0.70991  0.10144  0.94261  1.0000
  H   H766      1.0  0.73382  0.99148  0.94002  1.0000
  O   O1095     1.0  0.72593  0.05240  0.95167  1.0000
  H   H767      1.0  0.49530  0.57303  0.78022  1.0000
  H   H768      1.0  0.51153  0.63527  0.79288  1.0000
  O   O1096     1.0  0.51303  0.56455  0.78915  1.0000
  H   H769      1.0  0.82480  0.24509  0.41764  1.0000
  H   H770      1.0  0.81367  0.24242  0.44874  1.0000
  O   O1097     1.0  0.83042  0.24697  0.43733  1.0000
  H   H771      1.0  0.71363  0.42799  0.53124  1.0000
  H   H772      1.0  0.70774  0.40747  0.56167  1.0000
  O   O1098     1.0  0.72208  0.41767  0.54991  1.0000
  H   H773      1.0  0.68149  0.54878  0.40949  1.0000
  H   H774      1.0  0.69872  0.50218  0.43921  1.0000
  O   O1099     1.0  0.69700  0.48947  0.41858  1.0000
  H   H775      1.0  0.24597  0.35147  0.82252  1.0000
  H   H776      1.0  0.22539  0.35315  0.84585  1.0000
  O   O1100     1.0  0.23262  0.32316  0.82804  1.0000
  H   H777      1.0  0.41380  0.82346  0.57869  1.0000
  H   H778      1.0  0.40020  0.83591  0.54525  1.0000
  O   O1101     1.0  0.41706  0.83368  0.55768  1.0000
  H   H779      1.0  0.21348  0.94854  0.96258  1.0000
  H   H780      1.0  0.24438  0.92500  0.96402  1.0000
  O   O1102     1.0  0.22977  0.89844  0.97293  1.0000
  H   H781      1.0  0.29917  0.19593  0.54300  1.0000
  H   H782      1.0  0.30283  0.14362  0.57321  1.0000
  O   O1103     1.0  0.31157  0.13485  0.55334  1.0000
  H   H783      1.0  0.30883  0.90161  0.52850  1.0000
  H   H784      1.0  0.34112  0.83161  0.52265  1.0000
  O   O1104     1.0  0.32228  0.82805  0.52815  1.0000
  H   H785      1.0  0.07710  0.14104  0.00608  1.0000
  H   H786      1.0  0.07383  0.19668  0.97673  1.0000
  O   O1105     1.0  0.07552  0.20874  0.99642  1.0000
  H   H787      1.0  0.63824  0.69631  0.49499  1.0000
  H   H788      1.0  0.62064  0.67164  0.47369  1.0000
  O   O1106     1.0  0.62009  0.68899  0.49377  1.0000
  H   H789      1.0  0.60934  0.32242  0.80801  1.0000
  H   H790      1.0  0.59518  0.32218  0.77905  1.0000
  O   O1107     1.0  0.60231  0.27708  0.79610  1.0000
  H   H791      1.0  0.89301  0.10289  0.41564  1.0000
  H   H792      1.0  0.86046  0.15511  0.42981  1.0000
  O   O1108     1.0  0.87749  0.09439  0.42724  1.0000
  H   H793      1.0  0.86289  0.80191  0.65045  1.0000
  H   H794      1.0  0.89053  0.70562  0.64286  1.0000
  O   O1109     1.0  0.86912  0.74113  0.63849  1.0000
  H   H795      1.0  0.63576  0.76550  0.90410  1.0000
  H   H796      1.0  0.62245  0.77544  0.87429  1.0000
  O   O1110     1.0  0.64067  0.76660  0.88394  1.0000
  H   H797      1.0  0.12941  0.71587  0.73575  1.0000
  H   H798      1.0  0.14562  0.67117  0.71018  1.0000
  O   O1111     1.0  0.14472  0.65591  0.73107  1.0000
  H   H799      1.0  0.72662  0.38847  0.89610  1.0000
  H   H800      1.0  0.70744  0.31506  0.89201  1.0000
  O   O1112     1.0  0.71582  0.35066  0.90603  1.0000
  H   H801      1.0  0.03433  0.74733  0.71435  1.0000
  H   H802      1.0  0.06189  0.68468  0.70016  1.0000
  O   O1113     1.0  0.05242  0.74686  0.70931  1.0000
  H   H803      1.0  0.63651  0.46927  0.49555  1.0000
  H   H804      1.0  0.63687  0.56739  0.50332  1.0000
  O   O1114     1.0  0.64974  0.49995  0.50410  1.0000
  H   H805      1.0  0.37930  0.60059  0.61256  1.0000
  H   H806      1.0  0.36642  0.65303  0.64224  1.0000
  O   O1115     1.0  0.38326  0.61531  0.63151  1.0000
  H   H807      1.0  0.78420  0.06043  0.65770  1.0000
  H   H808      1.0  0.78169  0.94738  0.65524  1.0000
  O   O1116     1.0  0.79154  0.99315  0.64856  1.0000
  H   H809      1.0  0.63514  0.70782  0.99736  1.0000
  H   H810      1.0  0.64468  0.67046  0.96817  1.0000
  O   O1117     1.0  0.64605  0.64357  0.98730  1.0000
  H   H811      1.0  0.47872  0.86607  0.88728  1.0000
  H   H812      1.0  0.50636  0.77616  0.88836  1.0000
  O   O1118     1.0  0.49666  0.84288  0.89641  1.0000
  H   H813      1.0  0.82538  0.38502  0.64741  1.0000
  H   H814      1.0  0.79717  0.46854  0.63951  1.0000
  O   O1119     1.0  0.80939  0.44089  0.65561  1.0000
  H   H815      1.0  0.42516  0.32299  0.50713  1.0000
  H   H816      1.0  0.40712  0.34280  0.53594  1.0000
  O   O1120     1.0  0.40754  0.36549  0.51529  1.0000
  H   H817      1.0  0.84704  0.19683  0.65944  1.0000
  H   H818      1.0  0.85869  0.22930  0.63048  1.0000
  O   O1121     1.0  0.84707  0.25475  0.64710  1.0000
  H   H819      1.0  0.49718  0.61926  0.70423  1.0000
  H   H820      1.0  0.46686  0.67898  0.69262  1.0000
  O   O1122     1.0  0.47737  0.62627  0.70650  1.0000
  H   H821      1.0  0.15768  0.93267  0.03269  1.0000
  H   H822      1.0  0.17675  0.85841  0.00865  1.0000
  O   O1123     1.0  0.17340  0.92083  0.01940  1.0000
  H   H823      1.0  0.41210  0.96192  0.95773  1.0000
  H   H824      1.0  0.43960  0.87313  0.94598  1.0000
  O   O1124     1.0  0.42757  0.94346  0.94203  1.0000
  H   H825      1.0  0.60465  0.84536  0.48580  1.0000
  H   H826      1.0  0.61717  0.93036  0.47727  1.0000
  O   O1125     1.0  0.60062  0.91833  0.48476  1.0000
  H   H827      1.0  0.47498  0.18563  0.85233  1.0000
  H   H828      1.0  0.46827  0.25711  0.87906  1.0000
  O   O1126     1.0  0.45935  0.23422  0.86338  1.0000
  H   H829      1.0  0.82573  0.91032  0.90161  1.0000
  H   H830      1.0  0.84912  0.80417  0.90325  1.0000
  O   O1127     1.0  0.83532  0.85651  0.91369  1.0000
  H   H831      1.0  0.82716  0.23533  0.59676  1.0000
  H   H832      1.0  0.79329  0.28737  0.60292  1.0000
  O   O1128     1.0  0.80923  0.28273  0.59028  1.0000
  H   H833      1.0  0.57636  0.15692  0.01890  1.0000
  H   H834      1.0  0.55344  0.20706  0.99333  1.0000
  O   O1129     1.0  0.56920  0.14589  0.99971  1.0000
  H   H835      1.0  0.85967  0.47745  0.69566  1.0000
  H   H836      1.0  0.84264  0.55310  0.67592  1.0000
  O   O1130     1.0  0.84625  0.54464  0.69608  1.0000
  H   H837      1.0  0.38528  0.32590  0.78638  1.0000
  H   H838      1.0  0.38598  0.22191  0.77993  1.0000
  O   O1131     1.0  0.39463  0.26873  0.77375  1.0000
  H   H839      1.0  0.54812  0.23517  0.78481  1.0000
  H   H840      1.0  0.52363  0.22731  0.76424  1.0000
  O   O1132     1.0  0.54400  0.20672  0.76672  1.0000
  H   H841      1.0  0.79486  0.87852  0.47800  1.0000
  H   H842      1.0  0.80147  0.98609  0.48052  1.0000
  O   O1133     1.0  0.80125  0.92923  0.46927  1.0000
  H   H843      1.0  0.33651  0.91386  0.67879  1.0000
  H   H844      1.0  0.34973  0.95498  0.70283  1.0000
  O   O1134     1.0  0.33134  0.94628  0.69632  1.0000
  H   H845      1.0  0.52683  0.04021  0.55634  1.0000
  H   H846      1.0  0.56047  0.04385  0.55290  1.0000
  O   O1135     1.0  0.54260  0.06123  0.56442  1.0000
  H   H847      1.0  0.20262  0.85960  0.54287  1.0000
  H   H848      1.0  0.19869  0.82197  0.57325  1.0000
  O   O1136     1.0  0.19390  0.81831  0.55335  1.0000
  H   H849      1.0  0.65875  0.25733  0.68379  1.0000
  H   H850      1.0  0.63607  0.29873  0.70593  1.0000
  O   O1137     1.0  0.63766  0.26505  0.68811  1.0000
  H   H851      1.0  0.19873  0.98410  0.03107  1.0000
  H   H852      1.0  0.20227  0.02133  0.06417  1.0000
  O   O1138     1.0  0.21173  0.98499  0.04700  1.0000
  H   H853      1.0  0.68026  0.99802  0.92924  1.0000
  H   H854      1.0  0.68644  0.89630  0.91366  1.0000
  O   O1139     1.0  0.68244  0.92727  0.93174  1.0000
  H   H855      1.0  0.84274  0.81441  0.73155  1.0000
  H   H856      1.0  0.86979  0.73531  0.71922  1.0000
  O   O1140     1.0  0.85926  0.80803  0.71927  1.0000
  H   H857      1.0  0.28305  0.02806  0.78212  1.0000
  H   H858      1.0  0.25888  0.11656  0.79887  1.0000
  O   O1141     1.0  0.27794  0.09469  0.79145  1.0000
  H   H859      1.0  0.78248  0.78314  0.73076  1.0000
  H   H860      1.0  0.78352  0.66930  0.72585  1.0000
  O   O1142     1.0  0.76925  0.74680  0.72608  1.0000
  H   H861      1.0  0.59171  0.90122  0.83726  1.0000
  H   H862      1.0  0.59639  0.00591  0.84209  1.0000
  O   O1143     1.0  0.59973  0.94674  0.82891  1.0000
  H   H863      1.0  0.20502  0.43909  0.00906  1.0000
  H   H864      1.0  0.20468  0.51905  0.02940  1.0000
  O   O1144     1.0  0.19656  0.46566  0.02738  1.0000
  H   H865      1.0  0.76035  0.23484  0.40991  1.0000
  H   H866      1.0  0.73474  0.25810  0.43131  1.0000
  O   O1145     1.0  0.75516  0.21607  0.42941  1.0000
  H   H867      1.0  0.60855  0.84819  0.71308  1.0000
  H   H868      1.0  0.58728  0.91086  0.69318  1.0000
  O   O1146     1.0  0.59966  0.83747  0.69609  1.0000
  H   H869      1.0  0.42762  0.45317  0.77534  1.0000
  H   H870      1.0  0.40469  0.55397  0.77920  1.0000
  O   O1147     1.0  0.40590  0.48797  0.77465  1.0000
  H   H871      1.0  0.74937  0.54689  0.79418  1.0000
  H   H872      1.0  0.73387  0.65395  0.78688  1.0000
  O   O1148     1.0  0.73214  0.60229  0.79775  1.0000
  H   H873      1.0  0.06772  0.25932  0.47832  1.0000
  H   H874      1.0  0.06411  0.30947  0.44878  1.0000
  O   O1149     1.0  0.05826  0.26519  0.46103  1.0000
  H   H875      1.0  0.63732  0.79419  0.94677  1.0000
  H   H876      1.0  0.60811  0.78167  0.94019  1.0000
  O   O1150     1.0  0.62863  0.74931  0.93831  1.0000
  H   H877      1.0  0.37960  0.11045  0.85156  1.0000
  H   H878      1.0  0.36982  0.21080  0.83268  1.0000
  O   O1151     1.0  0.38207  0.17764  0.84825  1.0000
  H   H879      1.0  0.36301  0.62898  0.57264  1.0000
  H   H880      1.0  0.37790  0.51280  0.57464  1.0000
  O   O1152     1.0  0.38383  0.57419  0.57309  1.0000
  H   H881      1.0  0.48292  0.14999  0.63468  1.0000
  H   H882      1.0  0.48091  0.18707  0.60305  1.0000
  O   O1153     1.0  0.47905  0.12971  0.61522  1.0000
  H   H883      1.0  0.52344  0.68464  0.00110  1.0000
  H   H884      1.0  0.54025  0.62855  0.02774  1.0000
  O   O1154     1.0  0.53983  0.62750  0.00576  1.0000
  H   H885      1.0  0.27361  0.53247  0.82203  1.0000
  H   H886      1.0  0.28384  0.62582  0.82134  1.0000
  O   O1155     1.0  0.28152  0.57280  0.80924  1.0000
  H   H887      1.0  0.21782  0.12009  0.82068  1.0000
  H   H888      1.0  0.22579  0.22099  0.82042  1.0000
  O   O1156     1.0  0.22540  0.16284  0.80907  1.0000
  H   H889      1.0  0.90026  0.21633  0.91157  1.0000
  H   H890      1.0  0.91790  0.14995  0.88779  1.0000
  O   O1157     1.0  0.91988  0.16611  0.90756  1.0000
  H   H891      1.0  0.69245  0.06092  0.47374  1.0000
  H   H892      1.0  0.71688  0.05896  0.45412  1.0000
  O   O1158     1.0  0.69809  0.10722  0.46043  1.0000
  H   H893      1.0  0.45290  0.04025  0.81767  1.0000
  H   H894      1.0  0.42399  0.10236  0.83336  1.0000
  O   O1159     1.0  0.43795  0.03702  0.83319  1.0000
  H   H895      1.0  0.02857  0.35291  0.80253  1.0000
  H   H896      1.0  0.00206  0.31091  0.79997  1.0000
  O   O1160     1.0  0.00893  0.36368  0.79365  1.0000
  H   H897      1.0  0.33323  0.57135  0.65578  1.0000
  H   H898      1.0  0.32965  0.46686  0.66465  1.0000
  O   O1161     1.0  0.33069  0.51085  0.64734  1.0000
  H   H899      1.0  0.43223  0.05631  0.70480  1.0000
  H   H900      1.0  0.44125  0.10099  0.72852  1.0000
  O   O1162     1.0  0.44751  0.03774  0.72016  1.0000
  H   H901      1.0  0.75605  0.15745  0.98541  1.0000
  H   H902      1.0  0.75201  0.07730  0.96846  1.0000
  O   O1163     1.0  0.76714  0.09383  0.97882  1.0000
  H   H903      1.0  0.27213  0.02807  0.88129  1.0000
  H   H904      1.0  0.24318  0.11111  0.88697  1.0000
  O   O1164     1.0  0.25420  0.04069  0.89154  1.0000
  H   H905      1.0  0.54034  0.51443  0.98843  1.0000
  H   H906      1.0  0.55978  0.43712  0.96636  1.0000
  O   O1165     1.0  0.54268  0.44614  0.97875  1.0000
  H   H907      1.0  0.70200  0.17706  0.49683  1.0000
  H   H908      1.0  0.72248  0.19285  0.51771  1.0000
  O   O1166     1.0  0.70239  0.22390  0.51279  1.0000
  H   H909      1.0  0.81598  0.07963  0.51196  1.0000
  H   H910      1.0  0.78436  0.11794  0.51970  1.0000
  O   O1167     1.0  0.79706  0.09484  0.50408  1.0000
  H   H911      1.0  0.41906  0.42821  0.99008  1.0000
  H   H912      1.0  0.42064  0.39125  0.95829  1.0000
  O   O1168     1.0  0.42729  0.37014  0.97751  1.0000
  H   H913      1.0  0.48987  0.15414  0.91959  1.0000
  H   H914      1.0  0.46790  0.10725  0.92605  1.0000
  O   O1169     1.0  0.48269  0.10413  0.91243  1.0000
  H   H915      1.0  0.41303  0.55641  0.53916  1.0000
  H   H916      1.0  0.41627  0.47307  0.51613  1.0000
  O   O1170     1.0  0.42505  0.52420  0.52360  1.0000
  H   H917      1.0  0.68590  0.16648  0.54004  1.0000
  H   H918      1.0  0.67451  0.09036  0.55472  1.0000
  O   O1171     1.0  0.67370  0.16005  0.55446  1.0000
  H   H919      1.0  0.04019  0.71184  0.93388  1.0000
  H   H920      1.0  0.03360  0.83095  0.92522  1.0000
  O   O1172     1.0  0.04678  0.76089  0.92511  1.0000
  H   H921      1.0  0.51466  0.96865  0.93917  1.0000
  H   H922      1.0  0.50991  0.87946  0.92315  1.0000
  O   O1173     1.0  0.52107  0.89633  0.93833  1.0000
  H   H923      1.0  0.57096  0.49096  0.67324  1.0000
  H   H924      1.0  0.55619  0.51226  0.70149  1.0000
  O   O1174     1.0  0.55467  0.54314  0.68269  1.0000
  H   H925      1.0  0.47135  0.24576  0.55830  1.0000
  H   H926      1.0  0.49341  0.28347  0.56827  1.0000
  O   O1175     1.0  0.47455  0.28337  0.57453  1.0000
  H   H927      1.0  0.23315  0.11021  0.72656  1.0000
  H   H928      1.0  0.26166  0.11068  0.71210  1.0000
  O   O1176     1.0  0.24742  0.07619  0.71173  1.0000
  H   H929      1.0  0.20500  0.48110  0.56376  1.0000
  H   H930      1.0  0.21398  0.56703  0.55173  1.0000
  O   O1177     1.0  0.21668  0.52073  0.56867  1.0000
  H   H931      1.0  0.42119  0.96424  0.55922  1.0000
  H   H932      1.0  0.42751  0.05571  0.57471  1.0000
  O   O1178     1.0  0.41853  0.03614  0.55770  1.0000
  H   H933      1.0  0.11347  0.96711  0.95619  1.0000
  H   H934      1.0  0.11116  0.94655  0.92279  1.0000
  O   O1179     1.0  0.10060  0.95989  0.94078  1.0000
  H   H935      1.0  0.46629  0.60024  0.74305  1.0000
  H   H936      1.0  0.44900  0.63256  0.77116  1.0000
  O   O1180     1.0  0.46546  0.57498  0.76171  1.0000
  H   H937      1.0  0.11858  0.99105  0.53867  1.0000
  H   H938      1.0  0.11489  0.03167  0.50687  1.0000
  O   O1181     1.0  0.11812  0.04591  0.52696  1.0000
  H   H939      1.0  0.87729  0.41938  0.60219  1.0000
  H   H940      1.0  0.85570  0.51417  0.61767  1.0000
  O   O1182     1.0  0.85850  0.47254  0.60044  1.0000
  H   H941      1.0  0.48282  0.58841  0.65050  1.0000
  H   H942      1.0  0.48270  0.53613  0.62061  1.0000
  O   O1183     1.0  0.47285  0.55469  0.63958  1.0000
  H   H943      1.0  0.52899  0.52549  0.76069  1.0000
  H   H944      1.0  0.53572  0.44191  0.73390  1.0000
  O   O1184     1.0  0.53678  0.50899  0.73974  1.0000
  H   H945      1.0  0.46355  0.57739  0.03379  1.0000
  H   H946      1.0  0.46866  0.55329  0.00162  1.0000
  O   O1185     1.0  0.47689  0.53010  0.01955  1.0000
  H   H947      1.0  0.77939  0.62952  0.01058  1.0000
  H   H948      1.0  0.77877  0.52845  0.99981  1.0000
  O   O1186     1.0  0.78290  0.58781  0.99301  1.0000
  H   H949      1.0  0.66028  0.96152  0.56745  1.0000
  H   H950      1.0  0.69450  0.90493  0.56082  1.0000
  O   O1187     1.0  0.67819  0.96285  0.55755  1.0000
  H   H951      1.0  0.07594  0.76297  0.54002  1.0000
  H   H952      1.0  0.05908  0.70331  0.52569  1.0000
  O   O1188     1.0  0.05653  0.76695  0.53672  1.0000
  H   H953      1.0  0.80042  0.31062  0.73377  1.0000
  H   H954      1.0  0.81833  0.23786  0.75714  1.0000
  O   O1189     1.0  0.80009  0.28426  0.75390  1.0000
  H   H955      1.0  0.88567  0.78464  0.60572  1.0000
  H   H956      1.0  0.90512  0.82741  0.58789  1.0000
  O   O1190     1.0  0.89135  0.79402  0.58607  1.0000
  H   H957      1.0  0.47323  0.11583  0.03398  1.0000
  H   H958      1.0  0.50019  0.06735  0.01595  1.0000
  O   O1191     1.0  0.47847  0.09279  0.01387  1.0000
  H   H959      1.0  0.12490  0.54274  0.58768  1.0000
  H   H960      1.0  0.14575  0.61332  0.59203  1.0000
  O   O1192     1.0  0.12662  0.60901  0.58701  1.0000
  H   H961      1.0  0.25127  0.77589  0.00990  1.0000
  H   H962      1.0  0.27238  0.76315  0.03331  1.0000
  O   O1193     1.0  0.26503  0.72352  0.02041  1.0000
  H   H963      1.0  0.29243  0.26541  0.75925  1.0000
  H   H964      1.0  0.28335  0.17031  0.76583  1.0000
  O   O1194     1.0  0.28642  0.21206  0.75068  1.0000
  H   H965      1.0  0.07892  0.13227  0.52716  1.0000
  H   H966      1.0  0.05378  0.15615  0.54754  1.0000
  O   O1195     1.0  0.05779  0.16359  0.52658  1.0000
  H   H967      1.0  0.60289  0.24065  0.49582  1.0000
  H   H968      1.0  0.61900  0.21874  0.46682  1.0000
  O   O1196     1.0  0.60350  0.26870  0.47773  1.0000
  H   H969      1.0  0.86988  0.39389  0.51273  1.0000
  H   H970      1.0  0.86859  0.48797  0.53159  1.0000
  O   O1197     1.0  0.87672  0.45064  0.51510  1.0000
  H   H971      1.0  0.57208  0.57919  0.94535  1.0000
  H   H972      1.0  0.54574  0.63152  0.93059  1.0000
  O   O1198     1.0  0.56272  0.64820  0.93639  1.0000
  H   H973      1.0  0.04072  0.48933  0.85280  1.0000
  H   H974      1.0  0.00836  0.50983  0.85070  1.0000
  O   O1199     1.0  0.02526  0.47619  0.86354  1.0000
  H   H975      1.0  0.60482  0.69076  0.56397  1.0000
  H   H976      1.0  0.61883  0.58922  0.57458  1.0000
  O   O1200     1.0  0.61936  0.65360  0.57924  1.0000
  H   H977      1.0  0.69319  0.62303  0.90335  1.0000
  H   H978      1.0  0.66854  0.66380  0.88225  1.0000
  O   O1201     1.0  0.68574  0.60405  0.88607  1.0000
  H   H979      1.0  0.72468  0.54559  0.54868  1.0000
  H   H980      1.0  0.70562  0.62583  0.52731  1.0000
  O   O1202     1.0  0.72371  0.60304  0.53719  1.0000
  H   H981      1.0  0.40138  0.66712  0.73722  1.0000
  H   H982      1.0  0.37794  0.74852  0.75425  1.0000
  O   O1203     1.0  0.39881  0.71848  0.75261  1.0000
  H   H983      1.0  0.49742  0.69082  0.48021  1.0000
  H   H984      1.0  0.48143  0.76372  0.50394  1.0000
  O   O1204     1.0  0.49311  0.76120  0.48718  1.0000
  H   H985      1.0  0.43712  0.15460  0.43503  1.0000
  H   H986      1.0  0.42074  0.15434  0.46148  1.0000
  O   O1205     1.0  0.43222  0.19426  0.45203  1.0000
  H   H987      1.0  0.65729  0.08704  0.75974  1.0000
  H   H988      1.0  0.67077  0.04863  0.73160  1.0000
  O   O1206     1.0  0.65299  0.05030  0.74434  1.0000
  H   H989      1.0  0.79003  0.20016  0.48280  1.0000
  H   H990      1.0  0.77650  0.23558  0.45351  1.0000
  O   O1207     1.0  0.78690  0.25353  0.46742  1.0000
  H   H991      1.0  0.39165  0.30498  0.70864  1.0000
  H   H992      1.0  0.38344  0.29509  0.73767  1.0000
  O   O1208     1.0  0.37335  0.32567  0.72008  1.0000
  H   H993      1.0  0.95861  0.60262  0.63368  1.0000
  H   H994      1.0  0.96643  0.69161  0.63940  1.0000
  O   O1209     1.0  0.97234  0.63149  0.62604  1.0000
  H   H995      1.0  0.47889  0.66690  0.88485  1.0000
  H   H996      1.0  0.45376  0.62767  0.88843  1.0000
  O   O1210     1.0  0.46801  0.64806  0.89980  1.0000
  H   H997      1.0  0.04263  0.06865  0.50166  1.0000
  H   H998      1.0  0.03852  0.02267  0.47543  1.0000
  O   O1211     1.0  0.03206  0.02840  0.49420  1.0000
  H   H999      1.0  0.09019  0.91115  0.48371  1.0000
  H   H1000     1.0  0.09555  0.98883  0.46086  1.0000
  O   O1212     1.0  0.10005  0.95663  0.48005  1.0000
  H   H1001     1.0  0.51042  0.90656  0.56068  1.0000
  H   H1002     1.0  0.50306  0.97364  0.53518  1.0000
  O   O1213     1.0  0.50359  0.97622  0.55591  1.0000
  H   H1003     1.0  0.24390  0.22640  0.64675  1.0000
  H   H1004     1.0  0.23846  0.20516  0.61671  1.0000
  O   O1214     1.0  0.24830  0.16783  0.63426  1.0000
  H   H1005     1.0  0.29628  0.92040  0.95617  1.0000
  H   H1006     1.0  0.32553  0.93450  0.95911  1.0000
  O   O1215     1.0  0.31583  0.89604  0.94953  1.0000
  H   H1007     1.0  0.20323  0.49302  0.87605  1.0000
  H   H1008     1.0  0.17740  0.45253  0.87335  1.0000
  O   O1216     1.0  0.19835  0.43505  0.87178  1.0000
  H   H1009     1.0  0.98408  0.68395  0.50737  1.0000
  H   H1010     1.0  0.00159  0.61674  0.48412  1.0000
  O   O1217     1.0  0.98678  0.68180  0.48663  1.0000
  H   H1011     1.0  0.57796  0.26307  0.45546  1.0000
  H   H1012     1.0  0.56624  0.17880  0.44464  1.0000
  O   O1218     1.0  0.56365  0.25244  0.44124  1.0000
  H   H1013     1.0  0.61757  0.58553  0.71041  1.0000
  H   H1014     1.0  0.63617  0.55345  0.68542  1.0000
  O   O1219     1.0  0.63772  0.55027  0.70680  1.0000
  H   H1015     1.0  0.55333  0.15020  0.91440  1.0000
  H   H1016     1.0  0.57301  0.06097  0.93024  1.0000
  O   O1220     1.0  0.56139  0.07589  0.91294  1.0000
  H   H1017     1.0  0.19131  0.69229  0.82452  1.0000
  H   H1018     1.0  0.20762  0.76125  0.81653  1.0000
  O   O1221     1.0  0.19788  0.74435  0.83204  1.0000
  H   H1019     1.0  0.16407  0.60012  0.49061  1.0000
  H   H1020     1.0  0.16114  0.71725  0.49223  1.0000
  O   O1222     1.0  0.16401  0.65503  0.50428  1.0000
  H   H1021     1.0  0.66577  0.94500  0.47686  1.0000
  H   H1022     1.0  0.64729  0.01020  0.45598  1.0000
  O   O1223     1.0  0.64866  0.95087  0.46592  1.0000
  H   H1023     1.0  0.68653  0.64737  0.80493  1.0000
  H   H1024     1.0  0.65711  0.73703  0.80614  1.0000
  O   O1224     1.0  0.66538  0.66363  0.80201  1.0000
  H   H1025     1.0  0.90298  0.85063  0.77236  1.0000
  H   H1026     1.0  0.89110  0.90373  0.80187  1.0000
  O   O1225     1.0  0.90611  0.85004  0.79273  1.0000
  H   H1027     1.0  0.56901  0.67230  0.68467  1.0000
  H   H1028     1.0  0.58176  0.75382  0.69300  1.0000
  O   O1226     1.0  0.57289  0.70732  0.70016  1.0000
  H   H1029     1.0  0.16906  0.74329  0.97104  1.0000
  H   H1030     1.0  0.19676  0.73217  0.97520  1.0000
  O   O1227     1.0  0.17992  0.75500  0.98758  1.0000
  H   H1031     1.0  0.26811  0.33782  0.65637  1.0000
  H   H1032     1.0  0.24783  0.41108  0.63479  1.0000
  O   O1228     1.0  0.24732  0.36578  0.65063  1.0000
  H   H1033     1.0  0.11000  0.43310  0.60993  1.0000
  H   H1034     1.0  0.14051  0.42368  0.62280  1.0000
  O   O1229     1.0  0.12901  0.43144  0.60589  1.0000
  H   H1035     1.0  0.14655  0.47521  0.48193  1.0000
  H   H1036     1.0  0.16061  0.49969  0.45443  1.0000
  O   O1230     1.0  0.16183  0.49832  0.47571  1.0000
  H   H1037     1.0  0.72460  0.59574  0.46788  1.0000
  H   H1038     1.0  0.72977  0.69878  0.47866  1.0000
  O   O1231     1.0  0.72360  0.66504  0.46175  1.0000
  H   H1039     1.0  0.61525  0.38169  0.86330  1.0000
  H   H1040     1.0  0.59080  0.34436  0.86827  1.0000
  O   O1232     1.0  0.60240  0.35409  0.85389  1.0000
  H   H1041     1.0  0.13917  0.39858  0.89421  1.0000
  H   H1042     1.0  0.14320  0.36164  0.92620  1.0000
  O   O1233     1.0  0.13930  0.34152  0.90600  1.0000
  H   H1043     1.0  0.20962  0.95066  0.67915  1.0000
  H   H1044     1.0  0.18749  0.97496  0.70395  1.0000
  O   O1234     1.0  0.20350  0.91900  0.69507  1.0000
  H   H1045     1.0  0.58769  0.74309  0.51919  1.0000
  H   H1046     1.0  0.56646  0.74701  0.54428  1.0000
  O   O1235     1.0  0.58454  0.73965  0.53929  1.0000
  H   H1047     1.0  0.49250  0.73188  0.85003  1.0000
  H   H1048     1.0  0.52377  0.64367  0.85447  1.0000
  O   O1236     1.0  0.50582  0.69145  0.86323  1.0000
  H   H1049     1.0  0.91994  0.02041  0.96680  1.0000
  H   H1050     1.0  0.90698  0.03075  0.99583  1.0000
  O   O1237     1.0  0.92181  0.04422  0.98550  1.0000
  H   H1051     1.0  0.90065  0.71179  0.84164  1.0000
  H   H1052     1.0  0.90133  0.74733  0.81188  1.0000
  O   O1238     1.0  0.89265  0.70785  0.82262  1.0000
  H   H1053     1.0  0.16922  0.35173  0.77809  1.0000
  H   H1054     1.0  0.13964  0.41113  0.76848  1.0000
  O   O1239     1.0  0.15028  0.34921  0.77830  1.0000
  H   H1055     1.0  0.77407  0.23791  0.78261  1.0000
  H   H1056     1.0  0.76039  0.22626  0.81010  1.0000
  O   O1240     1.0  0.76188  0.20403  0.79016  1.0000
  H   H1057     1.0  0.70191  0.33943  0.50640  1.0000
  H   H1058     1.0  0.68183  0.44263  0.50336  1.0000
  O   O1241     1.0  0.70240  0.40548  0.50121  1.0000
  H   H1059     1.0  0.32724  0.74250  0.73706  1.0000
  H   H1060     1.0  0.33239  0.83330  0.72193  1.0000
  O   O1242     1.0  0.33534  0.79530  0.73965  1.0000
  H   H1061     1.0  0.95132  0.87579  0.59462  1.0000
  H   H1062     1.0  0.93378  0.90850  0.56754  1.0000
  O   O1243     1.0  0.94438  0.85235  0.57937  1.0000
  H   H1063     1.0  0.44729  0.87979  0.82607  1.0000
  H   H1064     1.0  0.47252  0.81905  0.80544  1.0000
  O   O1244     1.0  0.45924  0.81404  0.82133  1.0000
  H   H1065     1.0  0.45576  0.06280  0.97659  1.0000
  H   H1066     1.0  0.44276  0.02765  0.95218  1.0000
  O   O1245     1.0  0.44574  0.08928  0.95913  1.0000
  H   H1067     1.0  0.19576  0.73635  0.61129  1.0000
  H   H1068     1.0  0.18627  0.84243  0.62550  1.0000
  O   O1246     1.0  0.20335  0.78770  0.61792  1.0000
  H   H1069     1.0  0.75075  0.88827  0.90648  1.0000
  H   H1070     1.0  0.73783  0.85218  0.93020  1.0000
  O   O1247     1.0  0.74958  0.89217  0.92677  1.0000
  H   H1071     1.0  0.12129  0.29894  0.01339  1.0000
  H   H1072     1.0  0.10225  0.24565  0.01991  1.0000
  O   O1248     1.0  0.11678  0.26494  0.03019  1.0000
  H   H1073     1.0  0.58332  0.44634  0.58766  1.0000
  H   H1074     1.0  0.56334  0.48263  0.56093  1.0000
  O   O1249     1.0  0.56454  0.49210  0.58111  1.0000
  H   H1075     1.0  0.79673  0.47739  0.79071  1.0000
  H   H1076     1.0  0.78737  0.39882  0.77982  1.0000
  O   O1250     1.0  0.78455  0.43801  0.79744  1.0000
  H   H1077     1.0  0.93876  0.06374  0.83751  1.0000
  H   H1078     1.0  0.95326  0.94775  0.83254  1.0000
  O   O1251     1.0  0.95337  0.01664  0.82566  1.0000
  H   H1079     1.0  0.71221  0.31953  0.98086  1.0000
  H   H1080     1.0  0.74139  0.33774  0.97244  1.0000
  O   O1252     1.0  0.73379  0.29244  0.98204  1.0000
  H   H1081     1.0  0.80241  0.88706  0.76107  1.0000
  H   H1082     1.0  0.81574  0.77953  0.77449  1.0000
  O   O1253     1.0  0.81174  0.81685  0.75534  1.0000
  H   H1083     1.0  0.05249  0.41089  0.91519  1.0000
  H   H1084     1.0  0.02873  0.49637  0.90227  1.0000
  O   O1254     1.0  0.03703  0.47203  0.92170  1.0000
  H   H1085     1.0  0.69132  0.31926  0.66381  1.0000
  H   H1086     1.0  0.70779  0.23051  0.67993  1.0000
  O   O1255     1.0  0.68985  0.25451  0.66946  1.0000
  H   H1087     1.0  0.39374  0.01266  0.00279  1.0000
  H   H1088     1.0  0.37079  0.00106  0.98085  1.0000
  O   O1256     1.0  0.39059  0.95975  0.98999  1.0000
  H   H1089     1.0  0.91819  0.59165  0.81169  1.0000
  H   H1090     1.0  0.94455  0.50153  0.81194  1.0000
  O   O1257     1.0  0.92612  0.52474  0.80443  1.0000
  H   H1091     1.0  0.46722  0.32146  0.98759  1.0000
  H   H1092     1.0  0.48236  0.21665  0.00076  1.0000
  O   O1258     1.0  0.48140  0.28787  0.00101  1.0000
  H   H1093     1.0  0.86883  0.15422  0.57901  1.0000
  H   H1094     1.0  0.89109  0.15391  0.60182  1.0000
  O   O1259     1.0  0.87249  0.19672  0.59387  1.0000
  H   H1095     1.0  0.02826  0.16574  0.92718  1.0000
  H   H1096     1.0  0.99586  0.17110  0.92293  1.0000
  O   O1260     1.0  0.01524  0.14841  0.91529  1.0000
  H   H1097     1.0  0.35620  0.42582  0.87814  1.0000
  H   H1098     1.0  0.38296  0.43930  0.86152  1.0000
  O   O1261     1.0  0.36226  0.45615  0.86095  1.0000
  H   H1099     1.0  0.66367  0.89388  0.95215  1.0000
  H   H1100     1.0  0.64913  0.89061  0.98115  1.0000
  O   O1262     1.0  0.64641  0.88040  0.96199  1.0000
  H   H1101     1.0  0.82619  0.46093  0.39346  1.0000
  H   H1102     1.0  0.79395  0.51796  0.39985  1.0000
  O   O1263     1.0  0.80714  0.45089  0.39233  1.0000
  H   H1103     1.0  0.61969  0.97776  0.56114  1.0000
  H   H1104     1.0  0.63178  0.93967  0.59193  1.0000
  O   O1264     1.0  0.63690  0.93326  0.57247  1.0000
  H   H1105     1.0  0.80356  0.84413  0.00254  1.0000
  H   H1106     1.0  0.80936  0.81776  0.96992  1.0000
  O   O1265     1.0  0.81858  0.83382  0.98713  1.0000
  H   H1107     1.0  0.09977  0.67499  0.81739  1.0000
  H   H1108     1.0  0.08921  0.65423  0.84549  1.0000
  O   O1266     1.0  0.10054  0.61720  0.82985  1.0000
  H   H1109     1.0  0.49178  0.41955  0.65891  1.0000
  H   H1110     1.0  0.51544  0.33851  0.67703  1.0000
  O   O1267     1.0  0.49558  0.36927  0.67313  1.0000
  H   H1111     1.0  0.80321  0.19532  0.88480  1.0000
  H   H1112     1.0  0.81193  0.20993  0.85436  1.0000
  O   O1268     1.0  0.80394  0.16496  0.86602  1.0000
  H   H1113     1.0  0.34871  0.04625  0.90305  1.0000
  H   H1114     1.0  0.35277  0.14138  0.91561  1.0000
  O   O1269     1.0  0.33919  0.10496  0.91595  1.0000
  H   H1115     1.0  0.75387  0.98030  0.73832  1.0000
  H   H1116     1.0  0.72748  0.96718  0.71997  1.0000
  O   O1270     1.0  0.74747  0.97067  0.71976  1.0000
  H   H1117     1.0  0.66595  0.28999  0.81061  1.0000
  H   H1118     1.0  0.65793  0.39021  0.82612  1.0000
  O   O1271     1.0  0.65760  0.32226  0.82848  1.0000
  H   H1119     1.0  0.31904  0.58064  0.74107  1.0000
  H   H1120     1.0  0.30552  0.62116  0.70972  1.0000
  O   O1272     1.0  0.31990  0.61731  0.72389  1.0000
  H   H1121     1.0  0.19617  0.63992  0.51992  1.0000
  H   H1122     1.0  0.20297  0.71498  0.53944  1.0000
  O   O1273     1.0  0.21231  0.65092  0.52912  1.0000
  H   H1123     1.0  0.57360  0.51155  0.84696  1.0000
  H   H1124     1.0  0.56611  0.60823  0.85575  1.0000
  O   O1274     1.0  0.55840  0.57318  0.84123  1.0000
  H   H1125     1.0  0.75203  0.65176  0.68155  1.0000
  H   H1126     1.0  0.72340  0.68863  0.66242  1.0000
  O   O1275     1.0  0.73228  0.65357  0.67982  1.0000
  H   H1127     1.0  0.51341  0.28501  0.98443  1.0000
  H   H1128     1.0  0.53310  0.35129  0.98204  1.0000
  O   O1276     1.0  0.53122  0.28308  0.97557  1.0000
  H   H1129     1.0  0.35959  0.42913  0.99038  1.0000
  H   H1130     1.0  0.37062  0.32355  0.97729  1.0000
  O   O1277     1.0  0.35610  0.39153  0.97573  1.0000
  H   H1131     1.0  0.23304  0.68475  0.93407  1.0000
  H   H1132     1.0  0.23542  0.77937  0.94878  1.0000
  O   O1278     1.0  0.22365  0.73750  0.94821  1.0000
  H   H1133     1.0  0.11173  0.77494  0.06406  1.0000
  H   H1134     1.0  0.09208  0.88698  0.07727  1.0000
  O   O1279     1.0  0.09551  0.81504  0.07875  1.0000
  H   H1135     1.0  0.03506  0.45124  0.50092  1.0000
  H   H1136     1.0  0.03395  0.49737  0.46866  1.0000
  O   O1280     1.0  0.03145  0.51098  0.48944  1.0000
  H   H1137     1.0  0.81296  0.79352  0.93489  1.0000
  H   H1138     1.0  0.77926  0.81563  0.93571  1.0000
  O   O1281     1.0  0.79853  0.76456  0.94231  1.0000
  H   H1139     1.0  0.67026  0.03148  0.82305  1.0000
  H   H1140     1.0  0.66772  0.92895  0.82309  1.0000
  O   O1282     1.0  0.67709  0.96986  0.83302  1.0000
  H   H1141     1.0  0.72625  0.43858  0.48617  1.0000
  H   H1142     1.0  0.75263  0.40680  0.46566  1.0000
  O   O1283     1.0  0.73828  0.46409  0.47450  1.0000
  H   H1143     1.0  0.10380  0.31686  0.50418  1.0000
  H   H1144     1.0  0.11405  0.20060  0.50401  1.0000
  O   O1284     1.0  0.09805  0.26381  0.50918  1.0000
  H   H1145     1.0  0.18249  0.64162  0.77561  1.0000
  H   H1146     1.0  0.17588  0.64893  0.74378  1.0000
  O   O1285     1.0  0.18886  0.66455  0.75778  1.0000
  H   H1147     1.0  0.66449  0.31558  0.76072  1.0000
  H   H1148     1.0  0.69586  0.25812  0.76606  1.0000
  O   O1286     1.0  0.67775  0.26280  0.77392  1.0000
  H   H1149     1.0  0.52822  0.72233  0.57507  1.0000
  H   H1150     1.0  0.51586  0.71784  0.54675  1.0000
  O   O1287     1.0  0.52806  0.74898  0.55693  1.0000
  H   H1151     1.0  0.87138  0.60789  0.88678  1.0000
  H   H1152     1.0  0.87543  0.60876  0.91829  1.0000
  O   O1288     1.0  0.87668  0.64681  0.90102  1.0000
  H   H1153     1.0  0.21086  0.64595  0.86212  1.0000
  H   H1154     1.0  0.23010  0.59039  0.88928  1.0000
  O   O1289     1.0  0.21615  0.58822  0.87533  1.0000
  H   H1155     1.0  0.80600  0.76054  0.50628  1.0000
  H   H1156     1.0  0.79655  0.72434  0.47797  1.0000
  O   O1290     1.0  0.79031  0.77441  0.49272  1.0000
  H   H1157     1.0  0.34045  0.04063  0.04895  1.0000
  H   H1158     1.0  0.35799  0.95961  0.02939  1.0000
  O   O1291     1.0  0.33843  0.98294  0.03763  1.0000
  H   H1159     1.0  0.17500  0.78731  0.75969  1.0000
  H   H1160     1.0  0.14752  0.86702  0.77340  1.0000
  O   O1292     1.0  0.16246  0.85865  0.75931  1.0000
  H   H1161     1.0  0.99175  0.74772  0.90030  1.0000
  H   H1162     1.0  0.99077  0.64881  0.88421  1.0000
  O   O1293     1.0  0.99613  0.71125  0.88277  1.0000
  H   H1163     1.0  0.79565  0.16757  0.68594  1.0000
  H   H1164     1.0  0.76570  0.17405  0.68628  1.0000
  O   O1294     1.0  0.78065  0.17329  0.67340  1.0000
  H   H1165     1.0  0.39144  0.07644  0.43994  1.0000
  H   H1166     1.0  0.39118  0.04474  0.47171  1.0000
  O   O1295     1.0  0.40279  0.05269  0.45650  1.0000
  H   H1167     1.0  0.00647  0.44291  0.66203  1.0000
  H   H1168     1.0  0.99772  0.56011  0.65310  1.0000
  O   O1296     1.0  0.00905  0.50559  0.66618  1.0000
  H   H1169     1.0  0.68237  0.43752  0.91670  1.0000
  H   H1170     1.0  0.66444  0.54497  0.90646  1.0000
  O   O1297     1.0  0.66276  0.48711  0.91608  1.0000
  H   H1171     1.0  0.66309  0.16886  0.97913  1.0000
  H   H1172     1.0  0.63147  0.23236  0.98526  1.0000
  O   O1298     1.0  0.64694  0.22054  0.97120  1.0000
  H   H1173     1.0  0.44178  0.85430  0.76188  1.0000
  H   H1174     1.0  0.43162  0.95735  0.74787  1.0000
  O   O1299     1.0  0.42974  0.92136  0.76404  1.0000
  H   H1175     1.0  0.21867  0.17511  0.01237  1.0000
  H   H1176     1.0  0.22403  0.12366  0.04124  1.0000
  O   O1300     1.0  0.22467  0.18172  0.03156  1.0000
  H   H1177     1.0  0.33735  0.48501  0.77984  1.0000
  H   H1178     1.0  0.30257  0.54116  0.78421  1.0000
  O   O1301     1.0  0.31923  0.51593  0.76917  1.0000
  H   H1179     1.0  0.52265  0.50453  0.58301  1.0000
  H   H1180     1.0  0.52005  0.41446  0.59977  1.0000
  O   O1302     1.0  0.50752  0.48218  0.59093  1.0000
  H   H1181     1.0  0.96875  0.51732  0.88095  1.0000
  H   H1182     1.0  0.96662  0.55708  0.91119  1.0000
  O   O1303     1.0  0.96949  0.57679  0.89203  1.0000
  H   H1183     1.0  0.85069  0.32371  0.90337  1.0000
  H   H1184     1.0  0.85262  0.23348  0.92498  1.0000
  O   O1304     1.0  0.86418  0.26843  0.91611  1.0000
  H   H1185     1.0  0.31708  0.75323  0.66308  1.0000
  H   H1186     1.0  0.32820  0.81820  0.64225  1.0000
  O   O1305     1.0  0.33457  0.75978  0.65403  1.0000
  H   H1187     1.0  0.43968  0.46384  0.71845  1.0000
  H   H1188     1.0  0.46637  0.40537  0.70025  1.0000
  O   O1306     1.0  0.45461  0.39574  0.71550  1.0000
  H   H1189     1.0  0.29645  0.97192  0.00304  1.0000
  H   H1190     1.0  0.26321  0.98245  0.00569  1.0000
  O   O1307     1.0  0.27704  0.01848  0.00834  1.0000
  H   H1191     1.0  0.85007  0.77654  0.43534  1.0000
  H   H1192     1.0  0.83313  0.87674  0.44852  1.0000
  O   O1308     1.0  0.85042  0.84633  0.43786  1.0000
  H   H1193     1.0  0.48362  0.26397  0.66817  1.0000
  H   H1194     1.0  0.45889  0.22685  0.67997  1.0000
  O   O1309     1.0  0.47654  0.20730  0.66843  1.0000
  H   H1195     1.0  0.32700  0.50993  0.04714  1.0000
  H   H1196     1.0  0.34676  0.57528  0.04742  1.0000
  O   O1310     1.0  0.33972  0.53136  0.03502  1.0000
  H   H1197     1.0  0.83077  0.36358  0.85960  1.0000
  H   H1198     1.0  0.81725  0.45309  0.88117  1.0000
  O   O1311     1.0  0.83513  0.40349  0.87394  1.0000
  H   H1199     1.0  0.54914  0.85463  0.62303  1.0000
  H   H1200     1.0  0.54728  0.74024  0.62235  1.0000
  O   O1312     1.0  0.54985  0.79686  0.63567  1.0000
  H   H1201     1.0  0.93856  0.64671  0.88486  1.0000
  H   H1202     1.0  0.90384  0.66961  0.88796  1.0000
  O   O1313     1.0  0.91830  0.69420  0.87940  1.0000
  H   H1203     1.0  0.37701  0.39979  0.48527  1.0000
  H   H1204     1.0  0.35407  0.48265  0.46762  1.0000
  O   O1314     1.0  0.36666  0.41515  0.46647  1.0000
  H   H1205     1.0  0.67929  0.19248  0.58752  1.0000
  H   H1206     1.0  0.66920  0.22405  0.61884  1.0000
  O   O1315     1.0  0.68592  0.20984  0.60536  1.0000
  H   H1207     1.0  0.40916  0.47670  0.92630  1.0000
  H   H1208     1.0  0.40491  0.39048  0.90900  1.0000
  O   O1316     1.0  0.41835  0.40351  0.92228  1.0000
  H   H1209     1.0  0.39049  0.45737  0.64728  1.0000
  H   H1210     1.0  0.41828  0.40172  0.62807  1.0000
  O   O1317     1.0  0.40384  0.39331  0.63998  1.0000
  H   H1211     1.0  0.13681  0.86038  0.88507  1.0000
  H   H1212     1.0  0.15689  0.91122  0.90183  1.0000
  O   O1318     1.0  0.13685  0.91748  0.89614  1.0000
  H   H1213     1.0  0.57257  0.47209  0.50992  1.0000
  H   H1214     1.0  0.54953  0.42412  0.51285  1.0000
  O   O1319     1.0  0.56176  0.44834  0.52410  1.0000
  H   H1215     1.0  0.57232  0.24973  0.53976  1.0000
  H   H1216     1.0  0.60498  0.25018  0.53750  1.0000
  O   O1320     1.0  0.59091  0.22084  0.52989  1.0000
  H   H1217     1.0  0.33213  0.09101  0.98478  1.0000
  H   H1218     1.0  0.33766  0.06540  0.95066  1.0000
  O   O1321     1.0  0.33985  0.03449  0.96968  1.0000
  H   H1219     1.0  0.44258  0.96444  0.45918  1.0000
  H   H1220     1.0  0.47006  0.86969  0.46896  1.0000
  O   O1322     1.0  0.46154  0.94337  0.46648  1.0000
  H   H1221     1.0  0.46167  0.51848  0.52809  1.0000
  H   H1222     1.0  0.48575  0.49940  0.54850  1.0000
  O   O1323     1.0  0.47974  0.52548  0.53079  1.0000
  H   H1223     1.0  0.53616  0.29581  0.57478  1.0000
  H   H1224     1.0  0.53673  0.19617  0.55940  1.0000
  O   O1324     1.0  0.53187  0.26820  0.55650  1.0000
  H   H1225     1.0  0.78709  0.95590  0.86329  1.0000
  H   H1226     1.0  0.80136  0.04091  0.86642  1.0000
  O   O1325     1.0  0.80566  0.97132  0.86312  1.0000
  H   H1227     1.0  0.36393  0.41201  0.58516  1.0000
  H   H1228     1.0  0.34289  0.47335  0.60996  1.0000
  O   O1326     1.0  0.34614  0.46751  0.58919  1.0000
  H   H1229     1.0  0.63513  0.16295  0.42675  1.0000
  H   H1230     1.0  0.66125  0.14074  0.44533  1.0000
  O   O1327     1.0  0.64052  0.16087  0.44653  1.0000
  H   H1231     1.0  0.88057  0.55199  0.49256  1.0000
  H   H1232     1.0  0.88806  0.63601  0.47554  1.0000
  O   O1328     1.0  0.88770  0.56932  0.47458  1.0000
  H   H1233     1.0  0.28247  0.30981  0.89133  1.0000
  H   H1234     1.0  0.29585  0.21114  0.90779  1.0000
  O   O1329     1.0  0.27899  0.27494  0.90825  1.0000
  H   H1235     1.0  0.18381  0.37364  0.54070  1.0000
  H   H1236     1.0  0.16334  0.43597  0.56120  1.0000
  O   O1330     1.0  0.18353  0.40829  0.55855  1.0000
  H   H1237     1.0  0.32633  0.23038  0.63861  1.0000
  H   H1238     1.0  0.32760  0.26687  0.60874  1.0000
  O   O1331     1.0  0.33763  0.20833  0.62006  1.0000
  H   H1239     1.0  0.55080  0.97230  0.77392  1.0000
  H   H1240     1.0  0.53485  0.90345  0.75761  1.0000
  O   O1332     1.0  0.53437  0.94476  0.77394  1.0000
  H   H1241     1.0  0.36732  0.47247  0.70145  1.0000
  H   H1242     1.0  0.34682  0.57824  0.70809  1.0000
  O   O1333     1.0  0.36645  0.54145  0.69886  1.0000
  H   H1243     1.0  0.02807  0.92290  0.83024  1.0000
  H   H1244     1.0  0.02197  0.91053  0.86249  1.0000
  O   O1334     1.0  0.03035  0.87391  0.84577  1.0000
  H   H1245     1.0  0.94429  0.42106  0.87659  1.0000
  H   H1246     1.0  0.95981  0.38633  0.84509  1.0000
  O   O1335     1.0  0.96151  0.40267  0.86457  1.0000
  H   H1247     1.0  0.12443  0.07112  0.98240  1.0000
  H   H1248     1.0  0.15201  0.98616  0.98815  1.0000
  O   O1336     1.0  0.13975  0.02352  0.97254  1.0000
  H   H1249     1.0  0.08044  0.54195  0.82772  1.0000
  H   H1250     1.0  0.04603  0.57388  0.82140  1.0000
  O   O1337     1.0  0.06412  0.51899  0.82119  1.0000
  H   H1251     1.0  0.33682  0.76812  0.89485  1.0000
  H   H1252     1.0  0.33441  0.84437  0.91728  1.0000
  O   O1338     1.0  0.33801  0.83583  0.89781  1.0000
  H   H1253     1.0  0.38352  0.94107  0.62855  1.0000
  H   H1254     1.0  0.36563  0.05107  0.61891  1.0000
  O   O1339     1.0  0.36424  0.99293  0.62768  1.0000
  H   H1255     1.0  0.31070  0.17143  0.46947  1.0000
  H   H1256     1.0  0.32527  0.09939  0.44584  1.0000
  O   O1340     1.0  0.32390  0.10279  0.46749  1.0000
  H   H1257     1.0  0.28230  0.51037  0.44461  1.0000
  H   H1258     1.0  0.30681  0.46131  0.46878  1.0000
  O   O1341     1.0  0.28734  0.47453  0.46296  1.0000
  H   H1259     1.0  0.80386  0.29090  0.93008  1.0000
  H   H1260     1.0  0.78846  0.21464  0.92664  1.0000
  O   O1342     1.0  0.80570  0.22564  0.92122  1.0000
  H   H1261     1.0  0.51038  0.00960  0.70725  1.0000
  H   H1262     1.0  0.48203  0.97293  0.71000  1.0000
  O   O1343     1.0  0.50262  0.95250  0.70948  1.0000
  H   H1263     1.0  0.39495  0.55878  0.71100  1.0000
  H   H1264     1.0  0.41475  0.59602  0.69420  1.0000
  O   O1344     1.0  0.41267  0.57572  0.71307  1.0000
  H   H1265     1.0  0.66715  0.84183  0.87953  1.0000
  H   H1266     1.0  0.68725  0.89135  0.86426  1.0000
  O   O1345     1.0  0.68710  0.83939  0.87762  1.0000
  H   H1267     1.0  0.27370  0.79426  0.49258  1.0000
  H   H1268     1.0  0.30295  0.77609  0.50541  1.0000
  O   O1346     1.0  0.29028  0.73680  0.49896  1.0000
  H   H1269     1.0  0.48893  0.59747  0.45677  1.0000
  H   H1270     1.0  0.51483  0.51133  0.46973  1.0000
  O   O1347     1.0  0.51048  0.57101  0.45658  1.0000
  H   H1271     1.0  0.30771  0.66817  0.87672  1.0000
  H   H1272     1.0  0.33938  0.60918  0.87612  1.0000
  O   O1348     1.0  0.32400  0.65533  0.88699  1.0000
  H   H1273     1.0  0.04864  0.37296  0.71735  1.0000
  H   H1274     1.0  0.08314  0.32053  0.72123  1.0000
  O   O1349     1.0  0.06779  0.34545  0.70811  1.0000
  H   H1275     1.0  0.24910  0.06970  0.95758  1.0000
  H   H1276     1.0  0.25457  0.01761  0.92763  1.0000
  O   O1350     1.0  0.25811  0.00151  0.94873  1.0000
  H   H1277     1.0  0.13848  0.52812  0.05293  1.0000
  H   H1278     1.0  0.16111  0.51776  0.03089  1.0000
  O   O1351     1.0  0.13988  0.54316  0.03283  1.0000
  H   H1279     1.0  0.52056  0.85264  0.65103  1.0000
  H   H1280     1.0  0.50722  0.89235  0.67935  1.0000
  O   O1352     1.0  0.50321  0.85432  0.66318  1.0000
  H   H1281     1.0  0.04282  0.31320  0.00283  1.0000
  H   H1282     1.0  0.02544  0.37125  0.02794  1.0000
  O   O1353     1.0  0.03005  0.38095  0.00769  1.0000
  H   H1283     1.0  0.61328  0.70302  0.61732  1.0000
  H   H1284     1.0  0.59054  0.76134  0.63465  1.0000
  O   O1354     1.0  0.61114  0.72922  0.63674  1.0000
  H   H1285     1.0  0.76962  0.20458  0.85467  1.0000
  H   H1286     1.0  0.74835  0.30876  0.85299  1.0000
  O   O1355     1.0  0.75137  0.24188  0.84501  1.0000
  H   H1287     1.0  0.44628  0.14171  0.60804  1.0000
  H   H1288     1.0  0.41530  0.14888  0.61475  1.0000
  O   O1356     1.0  0.42888  0.13731  0.59936  1.0000
  H   H1289     1.0  0.03244  0.91938  0.99714  1.0000
  H   H1290     1.0  0.02246  0.87298  0.97213  1.0000
  O   O1357     1.0  0.01633  0.93117  0.98491  1.0000
  H   H1291     1.0  0.46987  0.87742  0.99471  1.0000
  H   H1292     1.0  0.45986  0.97525  0.01430  1.0000
  O   O1358     1.0  0.45321  0.92683  0.00526  1.0000
  H   H1293     1.0  0.50672  0.76661  0.76792  1.0000
  H   H1294     1.0  0.52068  0.76557  0.79664  1.0000
  O   O1359     1.0  0.50311  0.76433  0.78775  1.0000
  H   H1295     1.0  0.24083  0.51530  0.51231  1.0000
  H   H1296     1.0  0.25723  0.45026  0.49021  1.0000
  O   O1360     1.0  0.24292  0.45085  0.50319  1.0000
  H   H1297     1.0  0.29881  0.39463  0.56987  1.0000
  H   H1298     1.0  0.27760  0.40134  0.59484  1.0000
  O   O1361     1.0  0.29231  0.35027  0.58358  1.0000
  H   H1299     1.0  0.62652  0.47995  0.65161  1.0000
  H   H1300     1.0  0.61970  0.59955  0.64594  1.0000
  O   O1362     1.0  0.63454  0.53683  0.65228  1.0000
  O   O1363     1.0  0.16621  0.63170  0.80969  1.0000
  H   H1301     1.0  0.14602  0.67242  0.80462  1.0000
  H   H1302     1.0  0.16923  0.55806  0.81135  1.0000
  O   O1364     1.0  0.00324  0.96962  0.58480  1.0000
  H   H1303     1.0  0.99796  0.96375  0.56528  1.0000
  H   H1304     1.0  0.99186  0.04210  0.58854  1.0000
  O   O1365     1.0  0.91815  0.08472  0.62827  1.0000
  H   H1305     1.0  0.92315  0.10918  0.64556  1.0000
  H   H1306     1.0  0.91516  0.01883  0.63553  1.0000
  O   O1366     1.0  0.94152  0.38635  0.63664  1.0000
  H   H1307     1.0  0.93564  0.36622  0.61897  1.0000
  H   H1308     1.0  0.96253  0.36964  0.63435  1.0000
  O   O1367     1.0  0.95031  0.84907  0.85104  1.0000
  H   H1309     1.0  0.93623  0.88043  0.86591  1.0000
  H   H1310     1.0  0.96731  0.80081  0.86169  1.0000
  O   O1368     1.0  0.08719  0.24766  0.75872  1.0000
  H   H1311     1.0  0.07990  0.28621  0.77596  1.0000
  H   H1312     1.0  0.10857  0.21529  0.76328  1.0000
  O   O1369     1.0  0.03437  0.00851  0.78853  1.0000
  H   H1313     1.0  0.02208  0.03515  0.80440  1.0000
  H   H1314     1.0  0.02168  0.00171  0.77334  1.0000
  O   O1370     1.0  0.98158  0.38653  0.48465  1.0000
  H   H1315     1.0  0.99569  0.38772  0.49853  1.0000
  H   H1316     1.0  0.98366  0.43270  0.46943  1.0000
  O   O1371     1.0  0.88999  0.60961  0.70824  1.0000
  H   H1317     1.0  0.90118  0.56226  0.72352  1.0000
  H   H1318     1.0  0.87216  0.59723  0.70819  1.0000
  O   O1372     1.0  0.00097  0.74955  0.74353  1.0000
  H   H1319     1.0  0.00127  0.81615  0.74634  1.0000
  H   H1320     1.0  0.98942  0.73220  0.75894  1.0000
  O   O1373     1.0  0.06898  0.33253  0.80929  1.0000
  H   H1321     1.0  0.06244  0.40644  0.81317  1.0000
  H   H1322     1.0  0.06709  0.29626  0.82673  1.0000
  O   O1374     1.0  0.99950  0.93974  0.75144  1.0000
  H   H1323     1.0  0.00749  0.95485  0.73343  1.0000
  H   H1324     1.0  0.97975  0.98708  0.75298  1.0000
  O   O1375     1.0  0.01834  0.98382  0.70536  1.0000
  H   H1325     1.0  0.03894  0.94860  0.70388  1.0000
  H   H1326     1.0  0.01451  0.05068  0.69688  1.0000
  O   O1376     1.0  0.06121  0.51868  0.67434  1.0000
  H   H1327     1.0  0.07327  0.45744  0.68250  1.0000
  H   H1328     1.0  0.04362  0.51127  0.67530  1.0000
  O   O1377     1.0  0.28016  0.71631  0.59160  1.0000
  H   H1329     1.0  0.30067  0.70095  0.58806  1.0000
  H   H1330     1.0  0.27432  0.69447  0.57244  1.0000
  O   O1378     1.0  0.84650  0.89582  0.66833  1.0000
  H   H1331     1.0  0.82747  0.92031  0.66014  1.0000
  H   H1332     1.0  0.84325  0.87538  0.68883  1.0000
  O   O1379     1.0  0.07930  0.29938  0.90399  1.0000
  H   H1333     1.0  0.08062  0.26212  0.88582  1.0000
  H   H1334     1.0  0.09648  0.32226  0.90560  1.0000
  O   O1380     1.0  0.02393  0.36625  0.52461  1.0000
  H   H1335     1.0  0.01978  0.39296  0.54454  1.0000
  H   H1336     1.0  0.03422  0.29401  0.52710  1.0000
  O   O1381     1.0  0.94679  0.77675  0.66261  1.0000
  H   H1337     1.0  0.94441  0.75033  0.68152  1.0000
  H   H1338     1.0  0.96294  0.79834  0.66486  1.0000
  O   O1382     1.0  0.97101  0.52874  0.71331  1.0000
  H   H1339     1.0  0.98972  0.51655  0.72280  1.0000
  H   H1340     1.0  0.97701  0.53175  0.69356  1.0000
  O   O1383     1.0  0.16454  0.34394  0.65807  1.0000
  H   H1341     1.0  0.17236  0.39686  0.65769  1.0000
  H   H1342     1.0  0.16742  0.32180  0.67939  1.0000
  O   O1384     1.0  0.82943  0.75747  0.53504  1.0000
  H   H1343     1.0  0.84297  0.69711  0.54659  1.0000
  H   H1344     1.0  0.81430  0.78669  0.54852  1.0000
  O   O1385     1.0  0.92948  0.41842  0.91091  1.0000
  H   H1345     1.0  0.93876  0.34657  0.91466  1.0000
  H   H1346     1.0  0.94080  0.44857  0.92250  1.0000
  O   O1386     1.0  0.01328  0.42515  0.58303  1.0000
  H   H1347     1.0  0.99634  0.48072  0.58016  1.0000
  H   H1348     1.0  0.02700  0.44618  0.59254  1.0000
  O   O1387     1.0  0.11668  0.01748  0.68444  1.0000
  H   H1349     1.0  0.13124  0.01944  0.69765  1.0000
  H   H1350     1.0  0.12390  0.95812  0.67153  1.0000
  O   O1388     1.0  0.09171  0.77784  0.74069  1.0000
  H   H1351     1.0  0.08425  0.84982  0.73520  1.0000
  H   H1352     1.0  0.07744  0.75820  0.73079  1.0000
  O   O1389     1.0  0.96727  0.20056  0.57424  1.0000
  H   H1353     1.0  0.96322  0.19030  0.55391  1.0000
  H   H1354     1.0  0.98034  0.23610  0.57192  1.0000
  O   O1390     1.0  0.98280  0.72872  0.54426  1.0000
  H   H1355     1.0  0.00194  0.69098  0.55222  1.0000
  H   H1356     1.0  0.97115  0.77717  0.55886  1.0000
  O   O1391     1.0  0.90851  0.17219  0.85306  1.0000
  H   H1357     1.0  0.89233  0.15806  0.84603  1.0000
  H   H1358     1.0  0.90967  0.23193  0.84509  1.0000
  O   O1392     1.0  0.97624  0.27958  0.81155  1.0000
  H   H1359     1.0  0.98237  0.20763  0.81757  1.0000
  H   H1360     1.0  0.97048  0.27644  0.79215  1.0000
  O   O1393     1.0  0.03703  0.71333  0.63514  1.0000
  H   H1361     1.0  0.04778  0.65647  0.64809  1.0000
  H   H1362     1.0  0.02128  0.76498  0.64697  1.0000
  O   O1394     1.0  0.99873  0.35057  0.63465  1.0000
  H   H1363     1.0  0.00258  0.38147  0.61751  1.0000
  H   H1364     1.0  0.01267  0.28287  0.63532  1.0000
  O   O1395     1.0  0.07005  0.23042  0.62472  1.0000
  H   H1365     1.0  0.09013  0.18279  0.62444  1.0000
  H   H1366     1.0  0.06355  0.22103  0.64469  1.0000
  O   O1396     1.0  0.02001  0.46373  0.74178  1.0000
  H   H1367     1.0  0.01759  0.42907  0.75997  1.0000
  H   H1368     1.0  0.02723  0.51440  0.74599  1.0000
  O   O1397     1.0  0.01775  0.21902  0.86637  1.0000
  H   H1369     1.0  0.00198  0.28136  0.86294  1.0000
  H   H1370     1.0  0.01790  0.19274  0.88655  1.0000
  O   O1398     1.0  0.77154  0.00875  0.77141  1.0000
  H   H1371     1.0  0.76915  0.07492  0.78177  1.0000
  H   H1372     1.0  0.76058  0.97753  0.78165  1.0000
  O   O1399     1.0  0.00813  0.15870  0.68166  1.0000
  H   H1373     1.0  0.99710  0.22529  0.68956  1.0000
  H   H1374     1.0  0.02810  0.14791  0.68031  1.0000
  O   O1400     1.0  0.94610  0.17755  0.52643  1.0000
  H   H1375     1.0  0.93814  0.25017  0.52277  1.0000
  H   H1376     1.0  0.95477  0.13511  0.50895  1.0000
  O   O1401     1.0  0.87272  0.41364  0.78075  1.0000
  H   H1377     1.0  0.85299  0.46511  0.77789  1.0000
  H   H1378     1.0  0.87964  0.40434  0.79997  1.0000
  O   O1402     1.0  0.95305  0.25136  0.76366  1.0000
  H   H1379     1.0  0.94756  0.19518  0.76868  1.0000
  H   H1380     1.0  0.93592  0.30640  0.75900  1.0000
  O   O1403     1.0  0.72735  0.27531  0.74828  1.0000
  H   H1381     1.0  0.74013  0.26067  0.76466  1.0000
  H   H1382     1.0  0.72036  0.34938  0.74429  1.0000
  O   O1404     1.0  0.16487  0.17994  0.63506  1.0000
  H   H1383     1.0  0.18206  0.12652  0.64397  1.0000
  H   H1384     1.0  0.16519  0.24824  0.64478  1.0000
  O   O1405     1.0  0.06496  0.18128  0.67935  1.0000
  H   H1385     1.0  0.06589  0.23279  0.69243  1.0000
  H   H1386     1.0  0.08430  0.14432  0.67332  1.0000
  O   O1406     1.0  0.22110  0.31568  0.69676  1.0000
  H   H1387     1.0  0.22760  0.33652  0.67877  1.0000
  H   H1388     1.0  0.23662  0.25496  0.69996  1.0000
  O   O1407     1.0  0.73695  0.47660  0.69725  1.0000
  H   H1389     1.0  0.73326  0.54777  0.69187  1.0000
  H   H1390     1.0  0.72877  0.46703  0.71474  1.0000
  O   O1408     1.0  0.99608  0.08099  0.83287  1.0000
  H   H1391     1.0  0.97980  0.05819  0.83444  1.0000
  H   H1392     1.0  0.00103  0.10740  0.85093  1.0000
  O   O1409     1.0  0.91059  0.46323  0.75197  1.0000
  H   H1393     1.0  0.89674  0.44286  0.76120  1.0000
  H   H1394     1.0  0.91869  0.48311  0.76927  1.0000
  O   O1410     1.0  0.92236  0.01538  0.73343  1.0000
  H   H1395     1.0  0.92239  0.94766  0.73681  1.0000
  H   H1396     1.0  0.92977  0.00668  0.71440  1.0000
  O   O1411     1.0  0.12484  0.11471  0.61799  1.0000
  H   H1397     1.0  0.13842  0.14228  0.62900  1.0000
  H   H1398     1.0  0.12417  0.13960  0.59844  1.0000
  O   O1412     1.0  0.90325  0.92453  0.63590  1.0000
  H   H1399     1.0  0.91649  0.87411  0.64864  1.0000
  H   H1400     1.0  0.88540  0.95291  0.64346  1.0000
  O   O1413     1.0  0.95154  0.91811  0.50525  1.0000
  H   H1401     1.0  0.94373  0.96160  0.48960  1.0000
  H   H1402     1.0  0.97217  0.90959  0.50840  1.0000
  O   O1414     1.0  0.03308  0.67672  0.57635  1.0000
  H   H1403     1.0  0.03024  0.69589  0.59589  1.0000
  H   H1404     1.0  0.04911  0.69318  0.57152  1.0000
  O   O1415     1.0  0.78444  0.98917  0.59416  1.0000
  H   H1405     1.0  0.78526  0.99388  0.61577  1.0000
  H   H1406     1.0  0.80279  0.99584  0.58975  1.0000
  O   O1416     1.0  0.83864  0.77094  0.85062  1.0000
  H   H1407     1.0  0.82819  0.84639  0.85230  1.0000
  H   H1408     1.0  0.85747  0.76539  0.84465  1.0000
  O   O1417     1.0  0.87686  0.32583  0.69360  1.0000
  H   H1409     1.0  0.89709  0.31006  0.68829  1.0000
  H   H1410     1.0  0.86791  0.31560  0.67599  1.0000
  O   O1418     1.0  0.16625  0.09268  0.52870  1.0000
  H   H1411     1.0  0.14787  0.07742  0.52739  1.0000
  H   H1412     1.0  0.16422  0.13836  0.54504  1.0000
  O   O1419     1.0  0.92483  0.60146  0.65379  1.0000
  H   H1413     1.0  0.92433  0.53541  0.64695  1.0000
  H   H1414     1.0  0.91718  0.60154  0.67260  1.0000
  O   O1420     1.0  0.06090  0.91835  0.58759  1.0000
  H   H1415     1.0  0.04287  0.92782  0.57788  1.0000
  H   H1416     1.0  0.06704  0.85129  0.59498  1.0000
  O   O1421     1.0  0.04830  0.60029  0.75793  1.0000
  H   H1417     1.0  0.03382  0.66687  0.75432  1.0000
  H   H1418     1.0  0.05275  0.59690  0.77731  1.0000
  O   O1422     1.0  0.97086  0.93781  0.62163  1.0000
  H   H1419     1.0  0.98447  0.94593  0.60791  1.0000
  H   H1420     1.0  0.95337  0.00020  0.62322  1.0000
  O   O1423     1.0  0.07269  0.58435  0.50581  1.0000
  H   H1421     1.0  0.05784  0.55506  0.50123  1.0000
  H   H1422     1.0  0.07913  0.55242  0.52451  1.0000
  O   O1424     1.0  0.96325  0.59966  0.56826  1.0000
  H   H1423     1.0  0.96518  0.62777  0.58716  1.0000
  H   H1424     1.0  0.96562  0.65035  0.55544  1.0000
  O   O1425     1.0  0.92262  0.36288  0.59000  1.0000
  H   H1425     1.0  0.93295  0.29365  0.58241  1.0000
  H   H1426     1.0  0.92229  0.40928  0.57511  1.0000
  O   O1426     1.0  0.84492  0.59898  0.64412  1.0000
  H   H1427     1.0  0.82485  0.62592  0.63824  1.0000
  H   H1428     1.0  0.85122  0.65718  0.64384  1.0000
  O   O1427     1.0  0.12970  0.85339  0.65374  1.0000
  H   H1429     1.0  0.13631  0.88920  0.63784  1.0000
  H   H1430     1.0  0.11352  0.84338  0.64287  1.0000
  O   O1428     1.0  0.93684  0.26175  0.68157  1.0000
  H   H1431     1.0  0.93879  0.28271  0.66235  1.0000
  H   H1432     1.0  0.94878  0.29078  0.69276  1.0000
  O   O1429     1.0  0.86014  0.58497  0.55726  1.0000
  H   H1433     1.0  0.87951  0.58702  0.55758  1.0000
  H   H1434     1.0  0.85743  0.54620  0.57274  1.0000
  O   O1430     1.0  0.94569  0.08236  0.77514  1.0000
  H   H1435     1.0  0.93414  0.06588  0.76233  1.0000
  H   H1436     1.0  0.94546  0.05323  0.79404  1.0000
  O   O1431     1.0  0.07542  0.95483  0.71478  1.0000
  H   H1437     1.0  0.07416  0.00425  0.72905  1.0000
  H   H1438     1.0  0.09122  0.97108  0.70381  1.0000
  O   O1432     1.0  0.11799  0.52655  0.75680  1.0000
  H   H1439     1.0  0.12408  0.56841  0.74352  1.0000
  H   H1440     1.0  0.09733  0.54397  0.75467  1.0000
  O   O1433     1.0  0.00756  0.34454  0.95326  1.0000
  H   H1441     1.0  0.00684  0.35678  0.97343  1.0000
  H   H1442     1.0  0.01892  0.38162  0.94535  1.0000
  O   O1434     1.0  0.02243  0.68794  0.82891  1.0000
  H   H1443     1.0  0.02972  0.74298  0.83211  1.0000
  H   H1444     1.0  0.01496  0.67621  0.84728  1.0000
  O   O1435     1.0  0.90369  0.38162  0.82782  1.0000
  H   H1445     1.0  0.89586  0.41609  0.84587  1.0000
  H   H1446     1.0  0.91284  0.42481  0.81965  1.0000
  O   O1436     1.0  0.98042  0.30714  0.71677  1.0000
  H   H1447     1.0  0.97562  0.37983  0.71874  1.0000
  H   H1448     1.0  0.97303  0.28229  0.73292  1.0000
