data_image0
_chemical_formula_structural       Ti2O3Ti2O3Ti2O3Ti2O4Ti2O4Ti2O4Ti2O4Ti2O4Ti2O4Ti2O4Ti2O4Ti2O4Ti2O4Ti2O4Ti2O4Ti2O4Ti2O4Ti2O4Ti2O4Ti2O4Ti2O4Ti2O4Ti2O4Ti2O4Ti2O4Ti2O4Ti2O4Ti2O4Ti2O4Ti2O4Ti2O4Ti2O4Ti2O4Ti2O4Ti2O4Ti2O4Ti2O4Ti2O4Ti2O4Ti2O4Ti2O4Ti2O4Ti2O4Ti2O4Ti2O4Ti2O4Ti2O3Ti2O3Ti2O3Ti2O10H2OH2OH2OH2OH2OH2OH2OH2OH2OH2OH2OH2OH2OH2OH2OH2OH2OH2OH2OH2OH2OH2OH2OH2OH2OH2OH2OH2OH2OH2OH2OH2OH2OH2OH2OH2OH2OH2OH2OH2OH2OH2OH2OH2OH2OH2OH2OH2OH2OH2OH2OH2OH2OH2OH2OH2OH2OH2OH2OH2OH2OH2OH2OH2OH2OH2OH2OH2OH2OH2OH2OH2OH2OH2OH2OH2OH2OH2OH2OH2OH2OH2OH2OH2OH2OH2OH2OH2OH2OH2OH2OH2OH2OH2OH2OH2OH2OH2OH2OH2OH2OH2OH2OH2OH2OH2OH2OH2OH2OH2OH2OH2OH2OH2OH2OH2OH2OH2OH2OH2OH2OH2OH2OH2OH2OH2OH2OH2OH2OH2OH2OH2OH2OH2OH2OH2OH2OH2OH2OH2OH2OH2OH2OH2OH2OH2OH2OH2OH2OH2OH2OH2OH2OH2OH2OH2OH2OH2OH2OH2OH2OH2OH2OH2OH2OH2OH2OH2OH2OH2OH2OH2OH2OH2OH2OTi2O3Ti2O3Ti2O3Ti2O4Ti2O4Ti2O4Ti2O4Ti2O4Ti2O4Ti2O4Ti2O4Ti2O4Ti2O4Ti2O4Ti2O4Ti2O4Ti2O4Ti2O4Ti2O4Ti2O4Ti2O4Ti2O4Ti2O4Ti2O4Ti2O4Ti2O4Ti2O4Ti2O4Ti2O4Ti2O4Ti2O4Ti2O4Ti2O4Ti2O4Ti2O4Ti2O4Ti2O4Ti2O4Ti2O4Ti2O4Ti2O4Ti2O4Ti2O4Ti2O4Ti2O4Ti2O4Ti2O3Ti2O3Ti2O3Ti2O10H2OH2OH2OH2OH2OH2OH2OH2OH2OH2OH2OH2OH2OH2OH2OH2OH2OH2OH2OH2OH2OH2OH2OH2OH2OH2OH2OH2OH2OH2OH2OH2OH2OH2OH2OH2OH2OH2OH2OH2OH2OH2OH2OH2OH2OH2OH2OH2OH2OH2OH2OH2OH2OH2OH2OH2OH2OH2OH2OH2OH2OH2OH2OH2OH2OH2OH2OH2OH2OH2OH2OH2OH2OH2OH2OH2OH2OH2OH2OH2OH2OH2OH2OH2OH2OH2OH2OH2OH2OH2OH2OH2OH2OH2OH2OH2OH2OH2OH2OH2OH2OH2OH2OH2OH2OH2OH2OH2OH2OH2OH2OH2OH2OH2OH2OH2OH2OH2OH2OH2OH2OH2OH2OH2OH2OH2OH2OH2OH2OH2OH2OH2OH2OH2OH2OH2OH2OH2OH2OH2OH2OH2OH2OH2OH2OH2OH2OH2OH2OH2OH2OH2OH2OH2OH2OH2OH2OH2OH2OH2OH2OH2OH2OH2OH2OH2OH2OH2OH2OH2OH2OH2OH2OH2OH2O2H2OH2OH2OH2OH2OH2OH2OH2OH2OH2OH2OH2OH2OH2OH2OH2OH2OH2OH2OH2OH2OH2OH2OH2OH2OH2OH2OH2OH2OH2OH2OH2OH2OH2OH2OH2OH2OH2OH2OH2OH2OH2OH2OH2OH2
_chemical_formula_sum              "Ti200 O795 H790"
_cell_length_a       27.0242
_cell_length_b       14.2754
_cell_length_c       48.1463
_cell_angle_alpha    90
_cell_angle_beta     90
_cell_angle_gamma    72.5928

_space_group_name_H-M_alt    "P 1"
_space_group_IT_number       1

loop_
  _space_group_symop_operation_xyz
  'x, y, z'

loop_
  _atom_site_type_symbol
  _atom_site_label
  _atom_site_symmetry_multiplicity
  _atom_site_fract_x
  _atom_site_fract_y
  _atom_site_fract_z
  _atom_site_occupancy
  Ti  Ti1       1.0  0.98509  0.18730  0.06871  1.0000
  Ti  Ti2       1.0  0.98702  0.95008  0.06879  1.0000
  O   O1        1.0  0.95712  0.32990  0.07082  1.0000
  O   O2        1.0  0.91222  0.01650  0.06733  1.0000
  O   O3        1.0  0.51319  0.05899  0.07371  1.0000
  Ti  Ti3       1.0  0.87626  0.16203  0.07591  1.0000
  Ti  Ti4       1.0  0.88662  0.40349  0.07091  1.0000
  O   O4        1.0  0.84927  0.30295  0.08215  1.0000
  O   O5        1.0  0.81312  0.98381  0.07504  1.0000
  O   O6        1.0  0.40998  0.03473  0.08051  1.0000
  Ti  Ti5       1.0  0.77399  0.13757  0.07943  1.0000
  Ti  Ti6       1.0  0.78223  0.38811  0.08481  1.0000
  O   O7        1.0  0.74594  0.28017  0.08361  1.0000
  O   O8        1.0  0.70259  0.95701  0.08862  1.0000
  O   O9        1.0  0.29975  0.02413  0.08593  1.0000
  Ti  Ti7       1.0  0.67080  0.10486  0.08784  1.0000
  Ti  Ti8       1.0  0.67567  0.34953  0.09215  1.0000
  O   O10       1.0  0.63908  0.24820  0.09120  1.0000
  O   O11       1.0  0.60202  0.42829  0.09231  1.0000
  O   O12       1.0  0.20138  0.98767  0.09491  1.0000
  O   O13       1.0  0.04043  0.19586  0.09213  1.0000
  Ti  Ti9       1.0  0.56629  0.08798  0.09368  1.0000
  Ti  Ti10      1.0  0.57299  0.33073  0.10387  1.0000
  O   O14       1.0  0.54329  0.22691  0.09504  1.0000
  O   O15       1.0  0.50084  0.40488  0.10189  1.0000
  O   O16       1.0  0.09754  0.96320  0.10038  1.0000
  O   O17       1.0  0.93822  0.16865  0.09582  1.0000
  Ti  Ti11      1.0  0.46465  0.05431  0.10202  1.0000
  Ti  Ti12      1.0  0.46261  0.30939  0.09431  1.0000
  O   O18       1.0  0.43461  0.19586  0.10552  1.0000
  O   O19       1.0  0.39866  0.38056  0.11001  1.0000
  O   O20       1.0  0.99726  0.43445  0.10956  1.0000
  O   O21       1.0  0.83610  0.14721  0.10599  1.0000
  Ti  Ti13      1.0  0.35731  0.02665  0.10590  1.0000
  Ti  Ti14      1.0  0.36381  0.27071  0.11428  1.0000
  O   O22       1.0  0.33332  0.17056  0.11594  1.0000
  O   O23       1.0  0.29462  0.35836  0.11591  1.0000
  O   O24       1.0  0.89640  0.41361  0.11795  1.0000
  O   O25       1.0  0.72689  0.13001  0.11335  1.0000
  Ti  Ti15      1.0  0.25448  0.99775  0.11655  1.0000
  Ti  Ti16      1.0  0.25722  0.26538  0.12300  1.0000
  O   O26       1.0  0.22937  0.14463  0.12305  1.0000
  O   O27       1.0  0.18758  0.32484  0.11935  1.0000
  O   O28       1.0  0.78925  0.37525  0.12510  1.0000
  O   O29       1.0  0.62854  0.08693  0.12025  1.0000
  Ti  Ti17      1.0  0.15454  0.96968  0.12336  1.0000
  Ti  Ti18      1.0  0.15852  0.20903  0.12973  1.0000
  O   O30       1.0  0.12667  0.11214  0.12887  1.0000
  O   O31       1.0  0.08493  0.29848  0.12884  1.0000
  O   O32       1.0  0.68105  0.34798  0.13012  1.0000
  O   O33       1.0  0.52760  0.05979  0.12698  1.0000
  Ti  Ti19      1.0  0.05727  0.94345  0.13130  1.0000
  Ti  Ti20      1.0  0.05041  0.20253  0.12701  1.0000
  O   O34       1.0  0.02194  0.09014  0.13347  1.0000
  O   O35       1.0  0.98034  0.27066  0.13793  1.0000
  O   O36       1.0  0.57742  0.31461  0.14102  1.0000
  O   O37       1.0  0.42178  0.03625  0.13413  1.0000
  Ti  Ti21      1.0  0.95125  0.42742  0.14118  1.0000
  Ti  Ti22      1.0  0.95356  0.16820  0.14172  1.0000
  O   O38       1.0  0.91615  0.05940  0.14315  1.0000
  O   O39       1.0  0.87844  0.24533  0.14565  1.0000
  O   O40       1.0  0.47746  0.30892  0.14592  1.0000
  O   O41       1.0  0.32028  0.99389  0.14050  1.0000
  Ti  Ti23      1.0  0.85277  0.38480  0.14595  1.0000
  Ti  Ti24      1.0  0.84440  0.14415  0.14543  1.0000
  O   O42       1.0  0.81370  0.03607  0.14842  1.0000
  O   O43       1.0  0.77314  0.21904  0.15221  1.0000
  O   O44       1.0  0.37284  0.26865  0.15233  1.0000
  O   O45       1.0  0.21365  0.97592  0.14707  1.0000
  Ti  Ti25      1.0  0.74253  0.37073  0.15376  1.0000
  Ti  Ti26      1.0  0.74296  0.11569  0.15190  1.0000
  O   O46       1.0  0.71187  0.00277  0.15341  1.0000
  O   O47       1.0  0.66422  0.18896  0.15875  1.0000
  O   O48       1.0  0.26695  0.24842  0.16124  1.0000
  O   O49       1.0  0.11079  0.94863  0.15472  1.0000
  Ti  Ti27      1.0  0.64254  0.32898  0.16354  1.0000
  Ti  Ti28      1.0  0.64166  0.07357  0.15829  1.0000
  O   O50       1.0  0.61113  0.97322  0.16086  1.0000
  O   O51       1.0  0.56311  0.15540  0.16543  1.0000
  O   O52       1.0  0.16697  0.22633  0.16814  1.0000
  O   O53       1.0  0.00870  0.42610  0.16520  1.0000
  Ti  Ti29      1.0  0.53519  0.29489  0.17158  1.0000
  Ti  Ti30      1.0  0.53008  0.05666  0.16726  1.0000
  O   O54       1.0  0.49694  0.95004  0.17324  1.0000
  O   O55       1.0  0.46259  0.13532  0.17425  1.0000
  O   O56       1.0  0.06065  0.19952  0.17366  1.0000
  O   O57       1.0  0.90416  0.39607  0.17201  1.0000
  Ti  Ti31      1.0  0.43378  0.29247  0.17227  1.0000
  Ti  Ti32      1.0  0.42961  0.03791  0.17443  1.0000
  O   O58       1.0  0.39896  0.42189  0.18086  1.0000
  O   O59       1.0  0.35907  0.11440  0.18057  1.0000
  O   O60       1.0  0.95804  0.15940  0.18185  1.0000
  O   O61       1.0  0.79984  0.38341  0.17548  1.0000
  Ti  Ti33      1.0  0.32900  0.26419  0.18513  1.0000
  Ti  Ti34      1.0  0.32899  0.00569  0.17990  1.0000
  O   O62       1.0  0.29468  0.39867  0.18430  1.0000
  O   O63       1.0  0.25574  0.08905  0.18371  1.0000
  O   O64       1.0  0.84878  0.14067  0.18988  1.0000
  O   O65       1.0  0.69986  0.34277  0.18488  1.0000
  Ti  Ti35      1.0  0.22548  0.22392  0.19229  1.0000
  Ti  Ti36      1.0  0.22540  0.97648  0.18872  1.0000
  O   O66       1.0  0.19345  0.37633  0.19458  1.0000
  O   O67       1.0  0.15244  0.05733  0.19264  1.0000
  O   O68       1.0  0.74458  0.10329  0.19576  1.0000
  O   O69       1.0  0.59633  0.29817  0.19262  1.0000
  Ti  Ti37      1.0  0.11238  0.19713  0.19770  1.0000
  Ti  Ti38      1.0  0.12052  0.95416  0.20061  1.0000
  O   O70       1.0  0.08825  0.34880  0.20407  1.0000
  O   O71       1.0  0.04613  0.02805  0.20248  1.0000
  O   O72       1.0  0.64252  0.08012  0.20250  1.0000
  O   O73       1.0  0.48600  0.28382  0.19890  1.0000
  Ti  Ti39      1.0  0.01006  0.16411  0.20708  1.0000
  Ti  Ti40      1.0  0.01399  0.41517  0.20415  1.0000
  O   O74       1.0  0.98111  0.31760  0.20843  1.0000
  O   O75       1.0  0.93774  0.00822  0.20879  1.0000
  O   O76       1.0  0.54208  0.04814  0.20931  1.0000
  O   O77       1.0  0.38337  0.25872  0.20751  1.0000
  Ti  Ti41      1.0  0.90087  0.16047  0.21084  1.0000
  Ti  Ti42      1.0  0.90946  0.40627  0.21186  1.0000
  O   O78       1.0  0.87671  0.29493  0.21413  1.0000
  O   O79       1.0  0.83308  0.97268  0.21879  1.0000
  O   O80       1.0  0.43512  0.02971  0.21826  1.0000
  O   O81       1.0  0.27829  0.24694  0.21506  1.0000
  Ti  Ti43      1.0  0.79804  0.10926  0.21762  1.0000
  Ti  Ti44      1.0  0.80758  0.36793  0.21906  1.0000
  O   O82       1.0  0.77995  0.26521  0.22138  1.0000
  O   O83       1.0  0.73254  0.95267  0.22092  1.0000
  O   O84       1.0  0.33381  0.00527  0.22575  1.0000
  O   O85       1.0  0.18092  0.21280  0.22261  1.0000
  Ti  Ti45      1.0  0.69408  0.08639  0.22544  1.0000
  Ti  Ti46      1.0  0.70608  0.33801  0.22663  1.0000
  O   O86       1.0  0.67517  0.23418  0.22643  1.0000
  O   O87       1.0  0.63224  0.41431  0.23244  1.0000
  O   O88       1.0  0.22875  0.99327  0.23045  1.0000
  O   O89       1.0  0.07247  0.17238  0.22799  1.0000
  Ti  Ti47      1.0  0.59302  0.06259  0.23399  1.0000
  Ti  Ti48      1.0  0.59921  0.30909  0.23423  1.0000
  O   O90       1.0  0.56995  0.20364  0.23524  1.0000
  O   O91       1.0  0.53171  0.38702  0.23811  1.0000
  O   O92       1.0  0.12705  0.96627  0.23914  1.0000
  O   O93       1.0  0.96903  0.15107  0.23558  1.0000
  Ti  Ti49      1.0  0.49433  0.03310  0.24348  1.0000
  Ti  Ti50      1.0  0.49192  0.28758  0.24108  1.0000
  O   O94       1.0  0.46563  0.17830  0.24757  1.0000
  O   O95       1.0  0.42467  0.37297  0.24463  1.0000
  O   O96       1.0  0.02441  0.41004  0.24709  1.0000
  O   O97       1.0  0.86431  0.13318  0.24207  1.0000
  Ti  Ti51      1.0  0.39436  0.00024  0.24848  1.0000
  Ti  Ti52      1.0  0.39248  0.26430  0.24886  1.0000
  O   O98       1.0  0.36150  0.16377  0.25495  1.0000
  O   O99       1.0  0.31892  0.34849  0.25455  1.0000
  O   O100      1.0  0.92356  0.38646  0.25401  1.0000
  O   O101      1.0  0.76104  0.10981  0.25048  1.0000
  Ti  Ti53      1.0  0.29297  0.99086  0.25492  1.0000
  Ti  Ti54      1.0  0.29073  0.23221  0.25594  1.0000
  O   O102      1.0  0.25778  0.13079  0.25889  1.0000
  O   O103      1.0  0.21965  0.31812  0.26256  1.0000
  O   O104      1.0  0.82246  0.35989  0.26162  1.0000
  O   O105      1.0  0.65874  0.07219  0.25907  1.0000
  Ti  Ti55      1.0  0.18621  0.97079  0.26134  1.0000
  Ti  Ti56      1.0  0.18374  0.21500  0.26146  1.0000
  O   O106      1.0  0.15256  0.10827  0.26868  1.0000
  O   O107      1.0  0.10905  0.29094  0.26906  1.0000
  O   O108      1.0  0.71730  0.33273  0.26564  1.0000
  O   O109      1.0  0.55587  0.03583  0.26441  1.0000
  Ti  Ti57      1.0  0.07756  0.43287  0.27047  1.0000
  Ti  Ti58      1.0  0.07798  0.19026  0.26833  1.0000
  O   O110      1.0  0.04887  0.08113  0.27498  1.0000
  O   O111      1.0  0.00986  0.25766  0.27544  1.0000
  O   O112      1.0  0.61118  0.30198  0.27559  1.0000
  O   O113      1.0  0.45282  0.01154  0.27075  1.0000
  Ti  Ti59      1.0  0.97782  0.40533  0.27659  1.0000
  Ti  Ti60      1.0  0.97957  0.14635  0.27677  1.0000
  O   O114      1.0  0.94393  0.04100  0.27917  1.0000
  O   O115      1.0  0.90892  0.22734  0.27990  1.0000
  O   O116      1.0  0.50682  0.28738  0.28102  1.0000
  O   O117      1.0  0.35024  0.99194  0.27937  1.0000
  Ti  Ti61      1.0  0.87803  0.37365  0.28653  1.0000
  Ti  Ti62      1.0  0.87331  0.12623  0.28095  1.0000
  O   O118      1.0  0.84691  0.01648  0.28513  1.0000
  O   O119      1.0  0.80116  0.19944  0.28882  1.0000
  O   O120      1.0  0.40021  0.27763  0.29061  1.0000
  O   O121      1.0  0.24674  0.95790  0.28551  1.0000
  Ti  Ti63      1.0  0.77586  0.34689  0.29016  1.0000
  Ti  Ti64      1.0  0.77020  0.09296  0.29078  1.0000
  O   O122      1.0  0.74178  0.98451  0.29386  1.0000
  O   O123      1.0  0.69915  0.16906  0.29771  1.0000
  O   O124      1.0  0.29839  0.22747  0.29619  1.0000
  O   O125      1.0  0.13571  0.44512  0.29228  1.0000
  Ti  Ti65      1.0  0.67118  0.30949  0.29391  1.0000
  Ti  Ti66      1.0  0.66704  0.05693  0.29834  1.0000
  O   O126      1.0  0.63612  0.95783  0.30043  1.0000
  O   O127      1.0  0.59437  0.14760  0.30087  1.0000
  O   O128      1.0  0.18979  0.21390  0.30420  1.0000
  O   O129      1.0  0.03399  0.42164  0.29907  1.0000
  Ti  Ti67      1.0  0.56286  0.28581  0.30731  1.0000
  Ti  Ti68      1.0  0.56561  0.03933  0.30902  1.0000
  O   O130      1.0  0.53508  0.43652  0.30774  1.0000
  O   O131      1.0  0.49418  0.12196  0.30543  1.0000
  O   O132      1.0  0.09155  0.18205  0.31233  1.0000
  O   O133      1.0  0.93598  0.38608  0.30826  1.0000
  Ti  Ti69      1.0  0.46100  0.27709  0.30848  1.0000
  Ti  Ti70      1.0  0.46025  0.02505  0.31365  1.0000
  O   O134      1.0  0.43023  0.41175  0.31452  1.0000
  O   O135      1.0  0.38823  0.10291  0.31458  1.0000
  O   O136      1.0  0.98506  0.14612  0.31847  1.0000
  O   O137      1.0  0.83009  0.36008  0.31358  1.0000
  Ti  Ti71      1.0  0.35662  0.24404  0.32041  1.0000
  Ti  Ti72      1.0  0.35399  0.99405  0.32062  1.0000
  O   O138      1.0  0.32539  0.38717  0.32717  1.0000
  O   O139      1.0  0.28118  0.07673  0.32341  1.0000
  O   O140      1.0  0.87927  0.12948  0.32648  1.0000
  O   O141      1.0  0.72207  0.34219  0.31778  1.0000
  Ti  Ti73      1.0  0.24708  0.22048  0.32229  1.0000
  Ti  Ti74      1.0  0.25467  0.97233  0.32683  1.0000
  O   O142      1.0  0.21962  0.35656  0.32785  1.0000
  O   O143      1.0  0.18103  0.04987  0.32771  1.0000
  O   O144      1.0  0.77792  0.09923  0.33103  1.0000
  O   O145      1.0  0.62769  0.28914  0.32731  1.0000
  Ti  Ti75      1.0  0.14296  0.18904  0.33358  1.0000
  Ti  Ti76      1.0  0.15150  0.43435  0.33176  1.0000
  O   O146      1.0  0.11467  0.33517  0.33580  1.0000
  O   O147      1.0  0.08043  0.01697  0.34394  1.0000
  O   O148      1.0  0.67163  0.07395  0.34092  1.0000
  O   O149      1.0  0.52131  0.26728  0.33303  1.0000
  Ti  Ti77      1.0  0.04226  0.15326  0.34105  1.0000
  Ti  Ti78      1.0  0.04566  0.41899  0.34682  1.0000
  O   O150      1.0  0.01712  0.30942  0.34450  1.0000
  O   O151      1.0  0.97029  0.99167  0.34636  1.0000
  O   O152      1.0  0.57138  0.04883  0.34905  1.0000
  O   O153      1.0  0.41860  0.24957  0.34401  1.0000
  Ti  Ti79      1.0  0.93620  0.13426  0.34680  1.0000
  Ti  Ti80      1.0  0.94352  0.37709  0.34952  1.0000
  O   O154      1.0  0.91129  0.28290  0.35090  1.0000
  O   O155      1.0  0.86836  0.97045  0.35186  1.0000
  O   O156      1.0  0.47039  0.02496  0.35424  1.0000
  O   O157      1.0  0.31555  0.21652  0.34960  1.0000
  Ti  Ti81      1.0  0.83089  0.10570  0.35202  1.0000
  Ti  Ti82      1.0  0.83710  0.36288  0.36062  1.0000
  O   O158      1.0  0.80314  0.24977  0.36022  1.0000
  O   O159      1.0  0.76876  0.43149  0.36012  1.0000
  O   O160      1.0  0.36610  0.98486  0.36042  1.0000
  O   O161      1.0  0.20574  0.21343  0.35796  1.0000
  Ti  Ti83      1.0  0.73181  0.08430  0.36749  1.0000
  Ti  Ti84      1.0  0.73401  0.33310  0.35703  1.0000
  O   O162      1.0  0.70171  0.22590  0.36292  1.0000
  O   O163      1.0  0.65980  0.41829  0.36206  1.0000
  O   O164      1.0  0.26349  0.96766  0.36642  1.0000
  O   O165      1.0  0.10290  0.18322  0.36537  1.0000
  Ti  Ti85      1.0  0.63004  0.05620  0.37108  1.0000
  Ti  Ti86      1.0  0.62740  0.30209  0.36442  1.0000
  O   O166      1.0  0.59830  0.20078  0.37607  1.0000
  O   O167      1.0  0.56015  0.38167  0.37328  1.0000
  O   O168      1.0  0.16159  0.43068  0.37254  1.0000
  O   O169      1.0  0.00157  0.13437  0.37105  1.0000
  Ti  Ti87      1.0  0.53026  0.03411  0.38146  1.0000
  Ti  Ti88      1.0  0.53222  0.27287  0.39199  1.0000
  O   O170      1.0  0.49879  0.17242  0.38642  1.0000
  O   O171      1.0  0.45648  0.35288  0.38545  1.0000
  O   O172      1.0  0.05435  0.40079  0.38410  1.0000
  O   O173      1.0  0.89800  0.11546  0.37801  1.0000
  Ti  Ti89      1.0  0.42750  0.00119  0.38495  1.0000
  Ti  Ti90      1.0  0.42320  0.24943  0.38145  1.0000
  O   O174      1.0  0.39245  0.14367  0.38757  1.0000
  O   O175      1.0  0.35464  0.33117  0.38906  1.0000
  O   O176      1.0  0.95102  0.36821  0.38946  1.0000
  O   O177      1.0  0.78908  0.09226  0.38546  1.0000
  Ti  Ti91      1.0  0.32564  0.96556  0.39387  1.0000
  Ti  Ti92      1.0  0.31983  0.21400  0.38667  1.0000
  O   O178      1.0  0.29058  0.11201  0.39570  1.0000
  O   O179      1.0  0.25033  0.29866  0.39589  1.0000
  O   O180      1.0  0.84951  0.35002  0.39717  1.0000
  O   O181      1.0  0.68494  0.06914  0.39466  1.0000
  Ti  Ti93      1.0  0.21674  0.44731  0.39526  1.0000
  Ti  Ti94      1.0  0.21651  0.20286  0.39484  1.0000
  O   O182      1.0  0.18672  0.08977  0.40143  1.0000
  O   O183      1.0  0.14547  0.26970  0.40507  1.0000
  O   O184      1.0  0.58814  0.02275  0.40177  1.0000
  Ti  Ti95      1.0  0.11903  0.41062  0.40508  1.0000
  Ti  Ti96      1.0  0.11468  0.16263  0.40351  1.0000
  O   O185      1.0  0.08470  0.05545  0.40929  1.0000
  O   O186      1.0  0.04199  0.23622  0.41218  1.0000
  O   O187      1.0  0.47972  0.01085  0.40689  1.0000
  Ti  Ti97      1.0  0.01709  0.38328  0.41788  1.0000
  Ti  Ti98      1.0  0.00998  0.13223  0.40987  1.0000
  O   O188      1.0  0.98005  0.02716  0.41704  1.0000
  O   O189      1.0  0.93644  0.21002  0.41673  1.0000
  O   O190      1.0  0.38182  0.97815  0.41426  1.0000
  Ti  Ti99      1.0  0.90544  0.36068  0.41743  1.0000
  Ti  Ti100     1.0  0.90889  0.10499  0.41571  1.0000
  O   O191      1.0  0.87230  0.00471  0.42054  1.0000
  O   O192      1.0  0.27501  0.95230  0.41980  1.0000
  O   O193      1.0  0.00819  0.05476  0.06201  1.0000
  O   O194      1.0  0.61696  0.09353  0.06641  1.0000
  O   O195      1.0  0.71717  0.13486  0.05981  1.0000
  O   O196      1.0  0.81721  0.16376  0.05264  1.0000
  O   O197      1.0  0.91823  0.18639  0.04319  1.0000
  O   O198      1.0  0.17610  0.41836  0.42383  1.0000
  O   O199      1.0  0.07377  0.39651  0.43638  1.0000
  O   O200      1.0  0.96681  0.36430  0.44528  1.0000
  H   H1        1.0  0.08364  0.38552  0.07243  1.0000
  H   H2        1.0  0.07363  0.28809  0.07443  1.0000
  O   O201      1.0  0.06112  0.35203  0.06390  1.0000
  H   H3        1.0  0.80660  0.17506  0.40803  1.0000
  H   H4        1.0  0.84430  0.02150  0.40557  1.0000
  O   O202      1.0  0.82488  0.20607  0.42078  1.0000
  H   H5        1.0  0.07221  0.13186  0.45458  1.0000
  H   H6        1.0  0.05788  0.03735  0.45530  1.0000
  O   O203      1.0  0.03996  0.10948  0.45465  1.0000
  H   H7        1.0  0.92049  0.99723  0.82840  1.0000
  H   H8        1.0  0.97376  0.91685  0.82922  1.0000
  O   O204      1.0  0.95486  0.97589  0.81837  1.0000
  H   H9        1.0  0.06471  0.17234  0.61289  1.0000
  H   H10       1.0  0.03451  0.45689  0.81964  1.0000
  O   O205      1.0  0.06247  0.39866  0.81285  1.0000
  H   H11       1.0  0.73649  0.98872  0.90086  1.0000
  H   H12       1.0  0.04407  0.37582  0.79833  1.0000
  O   O206      1.0  0.36040  0.97500  0.68683  1.0000
  H   H13       1.0  0.38913  0.99693  0.69330  1.0000
  H   H14       1.0  0.75320  0.39774  0.48163  1.0000
  O   O207      1.0  0.77123  0.44743  0.47668  1.0000
  H   H15       1.0  0.77598  0.79631  0.53241  1.0000
  H   H16       1.0  0.74513  0.48915  0.46494  1.0000
  O   O208      1.0  0.54382  0.29006  0.42569  1.0000
  H   H17       1.0  0.72916  0.84622  0.55328  1.0000
  H   H18       1.0  0.69778  0.34589  0.41238  1.0000
  O   O209      1.0  0.76345  0.85265  0.54582  1.0000
  H   H19       1.0  0.81681  0.27547  0.41715  1.0000
  H   H20       1.0  0.71736  0.42488  0.40290  1.0000
  O   O210      1.0  0.73184  0.35349  0.40646  1.0000
  H   H21       1.0  0.88302  0.08735  0.47407  1.0000
  H   H22       1.0  0.87988  0.19436  0.46796  1.0000
  O   O211      1.0  0.90389  0.12715  0.46499  1.0000
  H   H23       1.0  0.97349  0.55577  0.56904  1.0000
  H   H24       1.0  0.90449  0.24427  0.03212  1.0000
  O   O212      1.0  0.95268  0.52446  0.55892  1.0000
  H   H25       1.0  0.93602  0.56511  0.54324  1.0000
  H   H26       1.0  0.29611  0.33000  0.86978  1.0000
  O   O213      1.0  0.32395  0.27430  0.86463  1.0000
  H   H27       1.0  0.52411  0.02355  0.01255  1.0000
  H   H28       1.0  0.34949  0.26536  0.87945  1.0000
  O   O214      1.0  0.65762  0.38080  0.04599  1.0000
  H   H29       1.0  0.47554  0.97261  0.70064  1.0000
  H   H30       1.0  0.63798  0.44999  0.04260  1.0000
  O   O215      1.0  0.45055  0.02289  0.68861  1.0000
  H   H31       1.0  0.33843  0.36054  0.79880  1.0000
  H   H32       1.0  0.53688  0.45495  0.04760  1.0000
  O   O216      1.0  0.48343  0.22374  0.96380  1.0000
  H   H33       1.0  0.51803  0.22980  0.97063  1.0000
  H   H34       1.0  0.55957  0.69312  0.88001  1.0000
  O   O217      1.0  0.41785  0.27877  0.00677  1.0000
  H   H35       1.0  0.40300  0.78321  0.55463  1.0000
  H   H36       1.0  0.28206  0.25613  0.06599  1.0000
  O   O218      1.0  0.25636  0.22939  0.07512  1.0000
  H   H37       1.0  0.17545  0.25200  0.07528  1.0000
  H   H38       1.0  0.17204  0.13906  0.07726  1.0000
  O   O219      1.0  0.15518  0.20914  0.07926  1.0000
  H   H39       1.0  0.02170  0.44139  0.01662  1.0000
  H   H40       1.0  0.97524  0.39238  0.01094  1.0000
  O   O220      1.0  0.99236  0.91889  0.02519  1.0000
  H   H41       1.0  0.83258  0.38422  0.46239  1.0000
  H   H42       1.0  0.88834  0.34542  0.47594  1.0000
  O   O221      1.0  0.86619  0.33563  0.45947  1.0000
  H   H43       1.0  0.00392  0.22896  0.01084  1.0000
  H   H44       1.0  0.03798  0.12278  0.01986  1.0000
  O   O222      1.0  0.02053  0.19012  0.02727  1.0000
  H   H45       1.0  0.15857  0.77187  0.59949  1.0000
  H   H46       1.0  0.12326  0.72331  0.58170  1.0000
  O   O223      1.0  0.15310  0.70834  0.59538  1.0000
  H   H47       1.0  0.58446  0.96240  0.89667  1.0000
  H   H48       1.0  0.60042  0.98032  0.92997  1.0000
  O   O224      1.0  0.58250  0.94709  0.91758  1.0000
  H   H49       1.0  0.21488  0.60328  0.58787  1.0000
  H   H50       1.0  0.24467  0.49963  0.59376  1.0000
  O   O225      1.0  0.24841  0.55776  0.58553  1.0000
  H   H51       1.0  0.74342  0.37557  0.03112  1.0000
  H   H52       1.0  0.83722  0.38062  0.03189  1.0000
  O   O226      1.0  0.87413  0.37666  0.03540  1.0000
  H   H53       1.0  0.42973  0.27223  0.51027  1.0000
  H   H54       1.0  0.43371  0.35226  0.53150  1.0000
  O   O227      1.0  0.45539  0.30198  0.51722  1.0000
  H   H55       1.0  0.00554  0.60024  0.60704  1.0000
  H   H56       1.0  0.05347  0.53244  0.59015  1.0000
  O   O228      1.0  0.02045  0.58443  0.58716  1.0000
  H   H57       1.0  0.24836  0.72216  0.86039  1.0000
  H   H58       1.0  0.22068  0.80438  0.88366  1.0000
  O   O229      1.0  0.23500  0.79435  0.86424  1.0000
  H   H59       1.0  0.60870  0.53155  0.93233  1.0000
  H   H60       1.0  0.63806  0.41916  0.92087  1.0000
  O   O230      1.0  0.62852  0.48992  0.91699  1.0000
  H   H61       1.0  0.82713  0.68981  0.60838  1.0000
  H   H62       1.0  0.82196  0.68584  0.64148  1.0000
  O   O231      1.0  0.81751  0.65172  0.62414  1.0000
  H   H63       1.0  0.62876  0.89371  0.77931  1.0000
  H   H64       1.0  0.63923  0.77993  0.78437  1.0000
  O   O232      1.0  0.61385  0.84023  0.78692  1.0000
  H   H65       1.0  0.79315  0.27640  0.68247  1.0000
  H   H66       1.0  0.78216  0.39424  0.67303  1.0000
  O   O233      1.0  0.76998  0.33354  0.67169  1.0000
  H   H67       1.0  0.39664  0.91680  0.64955  1.0000
  H   H68       1.0  0.98366  0.14526  0.56631  1.0000
  O   O234      1.0  0.38740  0.91362  0.62972  1.0000
  H   H69       1.0  0.51877  0.37498  0.75194  1.0000
  H   H70       1.0  0.56928  0.40145  0.75706  1.0000
  O   O235      1.0  0.54330  0.38271  0.76737  1.0000
  H   H71       1.0  0.60499  0.15124  0.87231  1.0000
  H   H72       1.0  0.63723  0.09858  0.89683  1.0000
  O   O236      1.0  0.63699  0.09932  0.87647  1.0000
  H   H73       1.0  0.13223  0.70488  0.83110  1.0000
  H   H74       1.0  0.06950  0.27792  0.61642  1.0000
  O   O237      1.0  0.07015  0.22703  0.60129  1.0000
  H   H75       1.0  0.87321  0.96325  0.70226  1.0000
  H   H76       1.0  0.81913  0.99648  0.69123  1.0000
  O   O238      1.0  0.85378  0.99963  0.68549  1.0000
  H   H77       1.0  0.13449  0.89165  0.48534  1.0000
  H   H78       1.0  0.12217  0.90170  0.51747  1.0000
  O   O239      1.0  0.10476  0.91008  0.49868  1.0000
  H   H79       1.0  0.36852  0.56054  0.53780  1.0000
  H   H80       1.0  0.38564  0.65270  0.53311  1.0000
  O   O240      1.0  0.39578  0.58259  0.52944  1.0000
  H   H81       1.0  0.71925  0.86528  0.92497  1.0000
  H   H82       1.0  0.69518  0.78016  0.91123  1.0000
  O   O241      1.0  0.72267  0.79566  0.92391  1.0000
  H   H83       1.0  0.74900  0.85478  0.45352  1.0000
  H   H84       1.0  0.75746  0.90766  0.48225  1.0000
  O   O242      1.0  0.77147  0.85147  0.46962  1.0000
  H   H85       1.0  0.16508  0.92735  0.58790  1.0000
  H   H86       1.0  0.18610  0.88869  0.61611  1.0000
  O   O243      1.0  0.15633  0.89544  0.60327  1.0000
  H   H87       1.0  0.83336  0.98850  0.92806  1.0000
  H   H88       1.0  0.81723  0.09613  0.94158  1.0000
  O   O244      1.0  0.80832  0.03315  0.94095  1.0000
  H   H89       1.0  0.25949  0.65383  0.45213  1.0000
  H   H90       1.0  0.93517  0.51045  0.65995  1.0000
  O   O245      1.0  0.93995  0.56193  0.67358  1.0000
  H   H91       1.0  0.22509  0.31077  0.60560  1.0000
  H   H92       1.0  0.19018  0.25270  0.61876  1.0000
  O   O246      1.0  0.19362  0.29334  0.60223  1.0000
  H   H93       1.0  0.98456  0.57918  0.65269  1.0000
  H   H94       1.0  0.04288  0.56718  0.65934  1.0000
  O   O247      1.0  0.01967  0.55835  0.64442  1.0000
  H   H95       1.0  0.84884  0.12544  0.68407  1.0000
  H   H96       1.0  0.33743  0.75847  0.44367  1.0000
  O   O248      1.0  0.84720  0.18942  0.69366  1.0000
  H   H97       1.0  0.63489  0.10601  0.56110  1.0000
  H   H98       1.0  0.59129  0.06062  0.56769  1.0000
  O   O249      1.0  0.63032  0.03661  0.56524  1.0000
  H   H99       1.0  0.32448  0.77071  0.77981  1.0000
  H   H100      1.0  0.35504  0.65435  0.78201  1.0000
  O   O250      1.0  0.18552  0.43713  0.95677  1.0000
  H   H101      1.0  0.55594  0.64544  0.01795  1.0000
  H   H102      1.0  0.58167  0.60384  0.97218  1.0000
  O   O251      1.0  0.45126  0.32651  0.05930  1.0000
  H   H103      1.0  0.07797  0.92852  0.57317  1.0000
  H   H104      1.0  0.03542  0.93038  0.59372  1.0000
  O   O252      1.0  0.04652  0.91071  0.57445  1.0000
  H   H105      1.0  0.41929  0.55284  0.01147  1.0000
  H   H106      1.0  0.38868  0.66316  0.00294  1.0000
  O   O253      1.0  0.39365  0.61463  0.01823  1.0000
  H   H107      1.0  0.79926  0.07151  0.99095  1.0000
  H   H108      1.0  0.36276  0.92471  0.70039  1.0000
  O   O254      1.0  0.23447  0.21944  0.44012  1.0000
  H   H109      1.0  0.22396  0.20154  0.79133  1.0000
  H   H110      1.0  0.26655  0.12936  0.80961  1.0000
  O   O255      1.0  0.23387  0.13548  0.79954  1.0000
  H   H111      1.0  0.62785  0.14883  0.68340  1.0000
  H   H112      1.0  0.65751  0.22449  0.67032  1.0000
  O   O256      1.0  0.66151  0.16367  0.68191  1.0000
  H   H113      1.0  0.05295  0.65206  0.89751  1.0000
  H   H114      1.0  0.01204  0.61666  0.87811  1.0000
  O   O257      1.0  0.02085  0.63829  0.89676  1.0000
  H   H115      1.0  0.17565  0.35579  0.93367  1.0000
  H   H116      1.0  0.15663  0.28364  0.91255  1.0000
  O   O258      1.0  0.18160  0.32438  0.91420  1.0000
  H   H117      1.0  0.48557  0.84722  0.05003  1.0000
  H   H118      1.0  0.63989  0.49813  0.99528  1.0000
  O   O259      1.0  0.61388  0.56967  0.99886  1.0000
  H   H119      1.0  0.31702  0.83870  0.70929  1.0000
  H   H120      1.0  0.35556  0.76755  0.73108  1.0000
  O   O260      1.0  0.35654  0.80383  0.71337  1.0000
  H   H121      1.0  0.26190  0.05854  0.95378  1.0000
  H   H122      1.0  0.40309  0.63477  0.81623  1.0000
  O   O261      1.0  0.38530  0.59415  0.80639  1.0000
  H   H123      1.0  0.12736  0.27280  0.49103  1.0000
  H   H124      1.0  0.11990  0.35015  0.46743  1.0000
  O   O262      1.0  0.14746  0.29689  0.47636  1.0000
  H   H125      1.0  0.88255  0.04363  0.56058  1.0000
  H   H126      1.0  0.93464  0.01017  0.54550  1.0000
  O   O263      1.0  0.90263  0.98782  0.54881  1.0000
  H   H127      1.0  0.89011  0.24887  0.74373  1.0000
  H   H128      1.0  0.85987  0.36425  0.74249  1.0000
  O   O264      1.0  0.89726  0.31471  0.74389  1.0000
  H   H129      1.0  0.34420  0.86406  0.49344  1.0000
  H   H130      1.0  0.39004  0.81163  0.47081  1.0000
  O   O265      1.0  0.35226  0.83913  0.47331  1.0000
  H   H131      1.0  0.40870  0.39820  0.61178  1.0000
  H   H132      1.0  0.39119  0.46699  0.63698  1.0000
  O   O266      1.0  0.41851  0.40677  0.63223  1.0000
  H   H133      1.0  0.47994  0.85973  0.48188  1.0000
  H   H134      1.0  0.46043  0.81585  0.50921  1.0000
  O   O267      1.0  0.48322  0.80242  0.49248  1.0000
  H   H135      1.0  0.36401  0.00482  0.89296  1.0000
  H   H136      1.0  0.30549  0.04470  0.89725  1.0000
  O   O268      1.0  0.33214  0.00077  0.88468  1.0000
  H   H137      1.0  0.22947  0.96450  0.71248  1.0000
  H   H138      1.0  0.24079  0.85858  0.72194  1.0000
  O   O269      1.0  0.24841  0.89847  0.70566  1.0000
  H   H139      1.0  0.70584  0.35412  0.98461  1.0000
  H   H140      1.0  0.11989  0.83005  0.97861  1.0000
  O   O270      1.0  0.83003  0.04632  0.00295  1.0000
  H   H141      1.0  0.60618  0.43260  0.49431  1.0000
  H   H142      1.0  0.76687  0.48462  0.95019  1.0000
  O   O271      1.0  0.77376  0.47745  0.97064  1.0000
  H   H143      1.0  0.56827  0.08069  0.43702  1.0000
  H   H144      1.0  0.57054  0.17806  0.45273  1.0000
  O   O272      1.0  0.57136  0.11194  0.45590  1.0000
  H   H145      1.0  0.60760  0.56078  0.80657  1.0000
  H   H146      1.0  0.57230  0.61923  0.77979  1.0000
  O   O273      1.0  0.60607  0.57969  0.78630  1.0000
  H   H147      1.0  0.97341  0.51793  0.73712  1.0000
  H   H148      1.0  0.01658  0.51473  0.71667  1.0000
  O   O274      1.0  0.98980  0.48431  0.72102  1.0000
  H   H149      1.0  0.13834  0.66156  0.70865  1.0000
  H   H150      1.0  0.10494  0.69521  0.73666  1.0000
  O   O275      1.0  0.13179  0.64313  0.72768  1.0000
  H   H151      1.0  0.52285  0.00289  0.93713  1.0000
  H   H152      1.0  0.48443  0.11120  0.94830  1.0000
  O   O276      1.0  0.48596  0.04117  0.94454  1.0000
  H   H153      1.0  0.48391  0.07897  0.85515  1.0000
  H   H154      1.0  0.46331  0.17817  0.84138  1.0000
  O   O277      1.0  0.47480  0.14720  0.85957  1.0000
  H   H155      1.0  0.48681  0.27566  0.65191  1.0000
  H   H156      1.0  0.53953  0.26162  0.63750  1.0000
  O   O278      1.0  0.52140  0.27622  0.65505  1.0000
  H   H157      1.0  0.46009  0.47703  0.98031  1.0000
  H   H158      1.0  0.48634  0.44090  0.00571  1.0000
  O   O279      1.0  0.45139  0.45090  0.99743  1.0000
  H   H159      1.0  0.68490  0.73096  0.99391  1.0000
  H   H160      1.0  0.68705  0.67805  0.02273  1.0000
  O   O280      1.0  0.66090  0.71611  0.00895  1.0000
  H   H161      1.0  0.34443  0.56020  0.46990  1.0000
  H   H162      1.0  0.29885  0.52040  0.48006  1.0000
  O   O281      1.0  0.30717  0.57856  0.47479  1.0000
  H   H163      1.0  0.20329  0.96052  0.04092  1.0000
  H   H164      1.0  0.15755  0.94321  0.05765  1.0000
  O   O282      1.0  0.16781  0.95323  0.03890  1.0000
  H   H165      1.0  0.69453  0.34235  0.66065  1.0000
  H   H166      1.0  0.18878  0.46693  0.45365  1.0000
  O   O283      1.0  0.66004  0.33610  0.66393  1.0000
  H   H167      1.0  0.08037  0.67346  0.45296  1.0000
  H   H168      1.0  0.23922  0.00810  0.45125  1.0000
  O   O284      1.0  0.22067  0.06030  0.46462  1.0000
  H   H169      1.0  0.62023  0.43044  0.68521  1.0000
  H   H170      1.0  0.59169  0.54756  0.68884  1.0000
  O   O285      1.0  0.59692  0.47991  0.69828  1.0000
  H   H171      1.0  0.62349  0.45477  0.72822  1.0000
  H   H172      1.0  0.62730  0.48119  0.76241  1.0000
  O   O286      1.0  0.63273  0.42427  0.74851  1.0000
  H   H173      1.0  0.19735  0.37837  0.03607  1.0000
  H   H174      1.0  0.18032  0.41010  0.06577  1.0000
  O   O287      1.0  0.16643  0.39659  0.04790  1.0000
  H   H175      1.0  0.57704  0.39102  0.61162  1.0000
  H   H176      1.0  0.61325  0.30092  0.59817  1.0000
  O   O288      1.0  0.61440  0.35215  0.61143  1.0000
  H   H177      1.0  0.06193  0.97670  0.01301  1.0000
  H   H178      1.0  0.10867  0.01309  0.02061  1.0000
  O   O289      1.0  0.07894  0.02622  0.00737  1.0000
  H   H179      1.0  0.80507  0.89594  0.96957  1.0000
  H   H180      1.0  0.83510  0.78378  0.97959  1.0000
  O   O290      1.0  0.80896  0.84766  0.98523  1.0000
  H   H181      1.0  0.86585  0.47414  0.01289  1.0000
  H   H182      1.0  0.84181  0.58315  0.01876  1.0000
  O   O291      1.0  0.85234  0.53760  0.00265  1.0000
  H   H183      1.0  0.08962  0.45283  0.53095  1.0000
  H   H184      1.0  0.03723  0.47255  0.54321  1.0000
  O   O292      1.0  0.05535  0.44246  0.52627  1.0000
  H   H185      1.0  0.98158  0.30201  0.87462  1.0000
  H   H186      1.0  0.94796  0.37006  0.89838  1.0000
  O   O293      1.0  0.96975  0.37097  0.88250  1.0000
  H   H187      1.0  0.21445  0.74308  0.91539  1.0000
  H   H188      1.0  0.22098  0.83378  0.93297  1.0000
  O   O294      1.0  0.20253  0.81545  0.91584  1.0000
  H   H189      1.0  0.77661  0.40496  0.74511  1.0000
  H   H190      1.0  0.79162  0.50123  0.73631  1.0000
  O   O295      1.0  0.80197  0.44406  0.74847  1.0000
  H   H191      1.0  0.47574  0.82982  0.87262  1.0000
  H   H192      1.0  0.51997  0.86516  0.86071  1.0000
  O   O296      1.0  0.48196  0.88779  0.86294  1.0000
  H   H193      1.0  0.02078  0.05887  0.87583  1.0000
  H   H194      1.0  0.99420  0.98474  0.86838  1.0000
  O   O297      1.0  0.02709  0.98707  0.87645  1.0000
  H   H195      1.0  0.12851  0.87143  0.90892  1.0000
  H   H196      1.0  0.07691  0.95642  0.90332  1.0000
  O   O298      1.0  0.09442  0.90621  0.91631  1.0000
  H   H197      1.0  0.44114  0.17193  0.63377  1.0000
  H   H198      1.0  0.41658  0.29294  0.63782  1.0000
  O   O299      1.0  0.43512  0.22693  0.64701  1.0000
  H   H199      1.0  0.54265  0.18792  0.68099  1.0000
  H   H200      1.0  0.56968  0.08309  0.67261  1.0000
  O   O300      1.0  0.56659  0.12703  0.68925  1.0000
  H   H201      1.0  0.08900  0.27414  0.84042  1.0000
  H   H202      1.0  0.11559  0.16312  0.83994  1.0000
  O   O301      1.0  0.09533  0.21790  0.85246  1.0000
  H   H203      1.0  0.75280  0.26347  0.88759  1.0000
  H   H204      1.0  0.76807  0.35415  0.89973  1.0000
  O   O302      1.0  0.78170  0.28507  0.89374  1.0000
  H   H205      1.0  0.57696  0.96592  0.63488  1.0000
  H   H206      1.0  0.57132  0.92604  0.66350  1.0000
  O   O303      1.0  0.58387  0.97514  0.65487  1.0000
  H   H207      1.0  0.66369  0.93274  0.66580  1.0000
  H   H208      1.0  0.69421  0.83775  0.68067  1.0000
  O   O304      1.0  0.69729  0.90135  0.67572  1.0000
  H   H209      1.0  0.36722  0.04631  0.44522  1.0000
  H   H210      1.0  0.35952  0.99714  0.47068  1.0000
  O   O305      1.0  0.37280  0.05154  0.46499  1.0000
  H   H211      1.0  0.74735  0.85217  0.75564  1.0000
  H   H212      1.0  0.71762  0.83378  0.72860  1.0000
  O   O306      1.0  0.73103  0.88593  0.73738  1.0000
  H   H213      1.0  0.63600  0.40073  0.83483  1.0000
  H   H214      1.0  0.63935  0.30459  0.81817  1.0000
  O   O307      1.0  0.65815  0.33081  0.83399  1.0000
  H   H215      1.0  0.72654  0.82188  0.81264  1.0000
  H   H216      1.0  0.66309  0.85318  0.82174  1.0000
  O   O308      1.0  0.69855  0.85054  0.82656  1.0000
  H   H217      1.0  0.32338  0.05468  0.84761  1.0000
  H   H218      1.0  0.33561  0.15019  0.84470  1.0000
  O   O309      1.0  0.32787  0.09971  0.83281  1.0000
  H   H219      1.0  0.59678  0.27281  0.96352  1.0000
  H   H220      1.0  0.58909  0.22423  0.99349  1.0000
  O   O310      1.0  0.58690  0.21645  0.97275  1.0000
  H   H221      1.0  0.26896  0.75304  0.54722  1.0000
  H   H222      1.0  0.25210  0.84387  0.56814  1.0000
  O   O311      1.0  0.27442  0.77751  0.56652  1.0000
  H   H223      1.0  0.36232  0.34333  0.99797  1.0000
  H   H224      1.0  0.43362  0.29971  0.02266  1.0000
  O   O312      1.0  0.34996  0.38602  0.81569  1.0000
  H   H225      1.0  0.20176  0.70128  0.00604  1.0000
  H   H226      1.0  0.49664  0.46649  0.79778  1.0000
  O   O313      1.0  0.47435  0.45900  0.81357  1.0000
  H   H227      1.0  0.28563  0.80174  0.96985  1.0000
  H   H228      1.0  0.25080  0.91130  0.97161  1.0000
  O   O314      1.0  0.25039  0.84393  0.96753  1.0000
  H   H229      1.0  0.03225  0.78478  0.56397  1.0000
  H   H230      1.0  0.04264  0.66612  0.56999  1.0000
  O   O315      1.0  0.05980  0.71752  0.56250  1.0000
  H   H231      1.0  0.48562  0.75866  0.99428  1.0000
  H   H232      1.0  0.44733  0.80859  0.96976  1.0000
  O   O316      1.0  0.45906  0.81979  0.98887  1.0000
  H   H233      1.0  0.85550  0.54454  0.59542  1.0000
  H   H234      1.0  0.90939  0.51691  0.57670  1.0000
  O   O317      1.0  0.88795  0.48909  0.59139  1.0000
  H   H235      1.0  0.01534  0.13605  0.48845  1.0000
  H   H236      1.0  0.03891  0.19620  0.50679  1.0000
  O   O318      1.0  0.01082  0.16156  0.50718  1.0000
  H   H237      1.0  0.36939  0.17253  0.51620  1.0000
  H   H238      1.0  0.38236  0.17807  0.48582  1.0000
  O   O319      1.0  0.37719  0.22163  0.50244  1.0000
  H   H239      1.0  0.92932  0.98901  0.62766  1.0000
  H   H240      1.0  0.89360  0.02050  0.65296  1.0000
  O   O320      1.0  0.89285  0.01996  0.63298  1.0000
  H   H241      1.0  0.46956  0.92051  0.99722  1.0000
  H   H242      1.0  0.47637  0.01447  0.97989  1.0000
  O   O321      1.0  0.47356  0.99205  0.99999  1.0000
  H   H243      1.0  0.15402  0.61582  0.02590  1.0000
  H   H244      1.0  0.63759  0.61113  0.99875  1.0000
  O   O322      1.0  0.12128  0.59861  0.02773  1.0000
  H   H245      1.0  0.50506  0.66226  0.03658  1.0000
  H   H246      1.0  0.99999  0.74599  0.83433  1.0000
  O   O323      1.0  0.52672  0.69538  0.02532  1.0000
  H   H247      1.0  0.46871  0.86197  0.83205  1.0000
  H   H248      1.0  0.43659  0.91166  0.80648  1.0000
  O   O324      1.0  0.45682  0.84728  0.81387  1.0000
  H   H249      1.0  0.00711  0.23225  0.58183  1.0000
  H   H250      1.0  0.66149  0.91381  0.03413  1.0000
  O   O325      1.0  0.97640  0.20338  0.57942  1.0000
  H   H251      1.0  0.09706  0.83593  0.94686  1.0000
  H   H252      1.0  0.31742  0.90477  0.86757  1.0000
  O   O326      1.0  0.31199  0.85650  0.85327  1.0000
  H   H253      1.0  0.69358  0.71176  0.74171  1.0000
  H   H254      1.0  0.48348  0.81753  0.55460  1.0000
  O   O327      1.0  0.46460  0.77059  0.54917  1.0000
  H   H255      1.0  0.11192  0.17261  0.89564  1.0000
  H   H256      1.0  0.09519  0.16708  0.92647  1.0000
  O   O328      1.0  0.11297  0.19972  0.91379  1.0000
  H   H257      1.0  0.73699  0.25399  0.51080  1.0000
  H   H258      1.0  0.72252  0.25558  0.47989  1.0000
  O   O329      1.0  0.73038  0.30170  0.49510  1.0000
  H   H259      1.0  0.53462  0.19188  0.59274  1.0000
  H   H260      1.0  0.59426  0.14535  0.60352  1.0000
  O   O330      1.0  0.56060  0.19963  0.60794  1.0000
  H   H261      1.0  0.30693  0.64131  0.74794  1.0000
  H   H262      1.0  0.31711  0.53151  0.74353  1.0000
  O   O331      1.0  0.29168  0.59540  0.73842  1.0000
  H   H263      1.0  0.46906  0.34270  0.81277  1.0000
  H   H264      1.0  0.41994  0.31048  0.81653  1.0000
  O   O332      1.0  0.45767  0.28118  0.81207  1.0000
  H   H265      1.0  0.22760  0.17862  0.66213  1.0000
  H   H266      1.0  0.22959  0.10519  0.64208  1.0000
  O   O333      1.0  0.20757  0.17301  0.64503  1.0000
  H   H267      1.0  0.33160  0.26493  0.96353  1.0000
  H   H268      1.0  0.36502  0.20135  0.93632  1.0000
  O   O334      1.0  0.33641  0.20561  0.95041  1.0000
  H   H269      1.0  0.36827  0.22760  0.43279  1.0000
  H   H270      1.0  0.32018  0.32274  0.43534  1.0000
  O   O335      1.0  0.32868  0.24907  0.43384  1.0000
  H   H271      1.0  0.06207  0.56884  0.95042  1.0000
  H   H272      1.0  0.02703  0.56765  0.92639  1.0000
  O   O336      1.0  0.03599  0.53815  0.94476  1.0000
  H   H273      1.0  0.79298  0.28529  0.03912  1.0000
  H   H274      1.0  0.88773  0.75016  0.81196  1.0000
  O   O337      1.0  0.77971  0.35963  0.03684  1.0000
  H   H275      1.0  0.21205  0.40576  0.66872  1.0000
  H   H276      1.0  0.25584  0.45863  0.66932  1.0000
  O   O338      1.0  0.24845  0.39825  0.66380  1.0000
  H   H277      1.0  0.81210  0.80720  0.78759  1.0000
  H   H278      1.0  0.79340  0.71631  0.78820  1.0000
  O   O339      1.0  0.78080  0.78931  0.78546  1.0000
  H   H279      1.0  0.76482  0.19363  0.80576  1.0000
  H   H280      1.0  0.73129  0.13704  0.79019  1.0000
  O   O340      1.0  0.76687  0.12824  0.79855  1.0000
  H   H281      1.0  0.56981  0.84390  0.93994  1.0000
  H   H282      1.0  0.51434  0.86075  0.95018  1.0000
  O   O341      1.0  0.54419  0.80834  0.94283  1.0000
  H   H283      1.0  0.18161  0.08892  0.81486  1.0000
  H   H284      1.0  0.15446  0.00780  0.81816  1.0000
  O   O342      1.0  0.14703  0.08376  0.81657  1.0000
  H   H285      1.0  0.91261  0.34463  0.64905  1.0000
  H   H286      1.0  0.90503  0.43103  0.62871  1.0000
  O   O343      1.0  0.90494  0.41733  0.64878  1.0000
  H   H287      1.0  0.67187  0.43302  0.60077  1.0000
  H   H288      1.0  0.72883  0.35384  0.60471  1.0000
  O   O344      1.0  0.70983  0.42237  0.59842  1.0000
  H   H289      1.0  0.79993  0.81712  0.57480  1.0000
  H   H290      1.0  0.85994  0.79017  0.58338  1.0000
  O   O345      1.0  0.82571  0.79153  0.59084  1.0000
  H   H291      1.0  0.41490  0.16755  0.89755  1.0000
  H   H292      1.0  0.10391  0.13519  0.79199  1.0000
  O   O346      1.0  0.07723  0.18069  0.78019  1.0000
  H   H293      1.0  0.48340  0.46415  0.57709  1.0000
  H   H294      1.0  0.07558  0.61083  0.70914  1.0000
  O   O347      1.0  0.06529  0.56289  0.69740  1.0000
  H   H295      1.0  0.07848  0.06162  0.96659  1.0000
  H   H296      1.0  0.07561  0.00732  0.94005  1.0000
  O   O348      1.0  0.06277  0.07346  0.94844  1.0000
  H   H297      1.0  0.77615  0.53604  0.65808  1.0000
  H   H298      1.0  0.83586  0.48645  0.66109  1.0000
  O   O349      1.0  0.80281  0.49709  0.67055  1.0000
  H   H299      1.0  0.14633  0.40621  0.60100  1.0000
  H   H300      1.0  0.12349  0.51431  0.61010  1.0000
  O   O350      1.0  0.11774  0.46945  0.59565  1.0000
  H   H301      1.0  0.86029  0.27706  0.83731  1.0000
  H   H302      1.0  0.82533  0.27873  0.86552  1.0000
  O   O351      1.0  0.85984  0.25209  0.85540  1.0000
  H   H303      1.0  0.65969  0.25517  0.43344  1.0000
  H   H304      1.0  0.60469  0.30524  0.42247  1.0000
  O   O352      1.0  0.64170  0.29953  0.41725  1.0000
  H   H305      1.0  0.41394  0.53353  0.49625  1.0000
  H   H306      1.0  0.96684  0.40692  0.46304  1.0000
  O   O353      1.0  0.41358  0.53003  0.47613  1.0000
  H   H307      1.0  0.82286  0.07908  0.02077  1.0000
  H   H308      1.0  0.26600  0.23547  0.44063  1.0000
  O   O354      1.0  0.11852  0.74343  0.84810  1.0000
  H   H309      1.0  0.45727  0.13683  0.43458  1.0000
  H   H310      1.0  0.45389  0.24098  0.44683  1.0000
  O   O355      1.0  0.43347  0.20380  0.43559  1.0000
  H   H311      1.0  0.23335  0.86322  0.66579  1.0000
  H   H312      1.0  0.25239  0.80484  0.63816  1.0000
  O   O356      1.0  0.23101  0.86743  0.64549  1.0000
  H   H313      1.0  0.73824  0.48768  0.57572  1.0000
  H   H314      1.0  0.73194  0.59263  0.58363  1.0000
  O   O357      1.0  0.73559  0.55490  0.56815  1.0000
  H   H315      1.0  0.21967  0.76665  0.75892  1.0000
  H   H316      1.0  0.22690  0.83967  0.77940  1.0000
  O   O358      1.0  0.21560  0.83879  0.76075  1.0000
  H   H317      1.0  0.18332  0.58051  0.49741  1.0000
  H   H318      1.0  0.14395  0.67318  0.51178  1.0000
  O   O359      1.0  0.17819  0.61865  0.51537  1.0000
  H   H319      1.0  0.87713  0.69822  0.51347  1.0000
  H   H320      1.0  0.93054  0.71690  0.51088  1.0000
  O   O360      1.0  0.91202  0.68603  0.52409  1.0000
  H   H321      1.0  0.43050  0.78824  0.91904  1.0000
  H   H322      1.0  0.39422  0.88094  0.93112  1.0000
  O   O361      1.0  0.41597  0.81452  0.93733  1.0000
  H   H323      1.0  0.26780  0.63665  0.60877  1.0000
  H   H324      1.0  0.26881  0.74070  0.59888  1.0000
  O   O362      1.0  0.27409  0.69991  0.61586  1.0000
  H   H325      1.0  0.88822  0.07150  0.99669  1.0000
  H   H326      1.0  0.92307  0.11652  0.01389  1.0000
  O   O363      1.0  0.92390  0.07337  0.99750  1.0000
  H   H327      1.0  0.50850  0.80378  0.78568  1.0000
  H   H328      1.0  0.56274  0.80041  0.77372  1.0000
  O   O364      1.0  0.53069  0.78247  0.76871  1.0000
  H   H329      1.0  0.86355  0.61730  0.97796  1.0000
  H   H330      1.0  0.91011  0.66890  0.97010  1.0000
  O   O365      1.0  0.87338  0.67534  0.97268  1.0000
  H   H331      1.0  0.36990  0.76317  0.95786  1.0000
  H   H332      1.0  0.34975  0.66790  0.96143  1.0000
  O   O366      1.0  0.35138  0.72887  0.96933  1.0000
  H   H333      1.0  0.45680  0.38317  0.90722  1.0000
  H   H334      1.0  0.45627  0.33721  0.93906  1.0000
  O   O367      1.0  0.43628  0.36025  0.92122  1.0000
  H   H335      1.0  0.39878  0.09024  0.04996  1.0000
  H   H336      1.0  0.41133  0.06621  0.01868  1.0000
  O   O368      1.0  0.39300  0.11733  0.03139  1.0000
  H   H337      1.0  0.32927  0.53351  0.96131  1.0000
  H   H338      1.0  0.38561  0.48042  0.95472  1.0000
  O   O369      1.0  0.35982  0.54292  0.95271  1.0000
  H   H339      1.0  0.74756  0.95240  0.52535  1.0000
  H   H340      1.0  0.70766  0.01584  0.50476  1.0000
  O   O370      1.0  0.74570  0.99897  0.50829  1.0000
  H   H341      1.0  0.72133  0.44250  0.98602  1.0000
  H   H342      1.0  0.12675  0.22553  0.45281  1.0000
  O   O371      1.0  0.12602  0.16056  0.44688  1.0000
  H   H343      1.0  0.93770  0.45603  0.78290  1.0000
  H   H344      1.0  0.92383  0.35930  0.77154  1.0000
  O   O372      1.0  0.93975  0.38781  0.78794  1.0000
  H   H345      1.0  0.57133  0.29842  0.79182  1.0000
  H   H346      1.0  0.61740  0.19842  0.78950  1.0000
  O   O373      1.0  0.59519  0.24759  0.80416  1.0000
  H   H347      1.0  0.52659  0.49532  0.87820  1.0000
  H   H348      1.0  0.93482  0.00029  0.92045  1.0000
  O   O374      1.0  0.90643  0.98436  0.91039  1.0000
  H   H349      1.0  0.67067  0.03271  0.93906  1.0000
  H   H350      1.0  0.61649  0.11242  0.95332  1.0000
  O   O375      1.0  0.63387  0.04542  0.94517  1.0000
  Ti  Ti101     1.0  0.98734  0.69639  0.06746  1.0000
  Ti  Ti102     1.0  0.98734  0.46058  0.07059  1.0000
  O   O376      1.0  0.95648  0.82763  0.06902  1.0000
  O   O377      1.0  0.91252  0.51675  0.06922  1.0000
  O   O378      1.0  0.50426  0.58194  0.07489  1.0000
  Ti  Ti103     1.0  0.87636  0.65914  0.07337  1.0000
  Ti  Ti104     1.0  0.88340  0.91180  0.07661  1.0000
  O   O379      1.0  0.85056  0.80341  0.07822  1.0000
  O   O380      1.0  0.81164  0.47985  0.07672  1.0000
  O   O381      1.0  0.40683  0.54617  0.07804  1.0000
  Ti  Ti105     1.0  0.77168  0.63682  0.07956  1.0000
  Ti  Ti106     1.0  0.77657  0.89031  0.08340  1.0000
  O   O382      1.0  0.74513  0.77891  0.08153  1.0000
  O   O383      1.0  0.70691  0.46109  0.08616  1.0000
  O   O384      1.0  0.31071  0.51137  0.09122  1.0000
  Ti  Ti107     1.0  0.67339  0.59603  0.08219  1.0000
  Ti  Ti108     1.0  0.67540  0.85097  0.09043  1.0000
  O   O385      1.0  0.64188  0.74233  0.08884  1.0000
  O   O386      1.0  0.60670  0.92795  0.09410  1.0000
  O   O387      1.0  0.20115  0.49280  0.09517  1.0000
  O   O388      1.0  0.04130  0.69926  0.08994  1.0000
  Ti  Ti109     1.0  0.56760  0.58226  0.09115  1.0000
  Ti  Ti110     1.0  0.57292  0.82791  0.09794  1.0000
  O   O389      1.0  0.54062  0.72089  0.09865  1.0000
  O   O390      1.0  0.49719  0.90461  0.10209  1.0000
  O   O391      1.0  0.09952  0.45871  0.10603  1.0000
  O   O392      1.0  0.93939  0.66813  0.09574  1.0000
  Ti  Ti111     1.0  0.46874  0.54469  0.10546  1.0000
  Ti  Ti112     1.0  0.47046  0.79633  0.10836  1.0000
  O   O393      1.0  0.44130  0.68940  0.11082  1.0000
  O   O394      1.0  0.39774  0.88159  0.10525  1.0000
  O   O395      1.0  0.99570  0.94272  0.10701  1.0000
  O   O396      1.0  0.83538  0.63652  0.10512  1.0000
  Ti  Ti113     1.0  0.36164  0.52793  0.11647  1.0000
  Ti  Ti114     1.0  0.36907  0.77374  0.11542  1.0000
  O   O397      1.0  0.33385  0.66689  0.11598  1.0000
  O   O398      1.0  0.29568  0.85672  0.11558  1.0000
  O   O399      1.0  0.89203  0.91275  0.11543  1.0000
  O   O400      1.0  0.73132  0.62076  0.11086  1.0000
  Ti  Ti115     1.0  0.25893  0.50635  0.11600  1.0000
  Ti  Ti116     1.0  0.25940  0.75024  0.12195  1.0000
  O   O401      1.0  0.23187  0.63872  0.12440  1.0000
  O   O402      1.0  0.18980  0.82613  0.12425  1.0000
  O   O403      1.0  0.78642  0.87652  0.12226  1.0000
  O   O404      1.0  0.62785  0.58813  0.11836  1.0000
  Ti  Ti117     1.0  0.15608  0.47778  0.12271  1.0000
  Ti  Ti118     1.0  0.15174  0.72899  0.12867  1.0000
  O   O405      1.0  0.12242  0.62547  0.13028  1.0000
  O   O406      1.0  0.08557  0.80127  0.12557  1.0000
  O   O407      1.0  0.68595  0.83932  0.13111  1.0000
  O   O408      1.0  0.52862  0.54738  0.12629  1.0000
  Ti  Ti119     1.0  0.05829  0.44335  0.13526  1.0000
  Ti  Ti120     1.0  0.05043  0.68990  0.12999  1.0000
  O   O409      1.0  0.01942  0.59172  0.13665  1.0000
  O   O410      1.0  0.97533  0.78109  0.13309  1.0000
  O   O411      1.0  0.58116  0.82596  0.13687  1.0000
  O   O412      1.0  0.42337  0.52570  0.13410  1.0000
  Ti  Ti121     1.0  0.94937  0.91697  0.14239  1.0000
  Ti  Ti122     1.0  0.94194  0.68011  0.13748  1.0000
  O   O413      1.0  0.92001  0.56514  0.14183  1.0000
  O   O414      1.0  0.87355  0.74486  0.14153  1.0000
  O   O415      1.0  0.47373  0.79692  0.14670  1.0000
  O   O416      1.0  0.31862  0.50758  0.14478  1.0000
  Ti  Ti123     1.0  0.84450  0.89041  0.14603  1.0000
  Ti  Ti124     1.0  0.84537  0.62760  0.14259  1.0000
  O   O417      1.0  0.81667  0.52619  0.14733  1.0000
  O   O418      1.0  0.77451  0.71324  0.14890  1.0000
  O   O419      1.0  0.37134  0.76608  0.15309  1.0000
  O   O420      1.0  0.21413  0.48545  0.14756  1.0000
  Ti  Ti125     1.0  0.73954  0.86427  0.15554  1.0000
  Ti  Ti126     1.0  0.74090  0.61497  0.15058  1.0000
  O   O421      1.0  0.71311  0.50621  0.15392  1.0000
  O   O422      1.0  0.66915  0.68907  0.15730  1.0000
  O   O423      1.0  0.26580  0.75158  0.16280  1.0000
  O   O424      1.0  0.11135  0.45421  0.15835  1.0000
  Ti  Ti127     1.0  0.63804  0.83447  0.15959  1.0000
  Ti  Ti128     1.0  0.63750  0.57993  0.15606  1.0000
  O   O425      1.0  0.60620  0.46681  0.16290  1.0000
  O   O426      1.0  0.56742  0.65891  0.16462  1.0000
  O   O427      1.0  0.16349  0.72249  0.16787  1.0000
  O   O428      1.0  0.00636  0.92160  0.16347  1.0000
  Ti  Ti129     1.0  0.53408  0.80968  0.16654  1.0000
  Ti  Ti130     1.0  0.53304  0.55300  0.16684  1.0000
  O   O429      1.0  0.49779  0.45850  0.17017  1.0000
  O   O430      1.0  0.46352  0.63857  0.17458  1.0000
  O   O431      1.0  0.06011  0.70288  0.17341  1.0000
  O   O432      1.0  0.90151  0.89956  0.16888  1.0000
  Ti  Ti131     1.0  0.43035  0.77822  0.18012  1.0000
  Ti  Ti132     1.0  0.43168  0.53348  0.17794  1.0000
  O   O433      1.0  0.39751  0.91594  0.18054  1.0000
  O   O434      1.0  0.35786  0.60268  0.17831  1.0000
  O   O435      1.0  0.95394  0.67178  0.18090  1.0000
  O   O436      1.0  0.79832  0.87889  0.17523  1.0000
  Ti  Ti133     1.0  0.32513  0.75077  0.18403  1.0000
  Ti  Ti134     1.0  0.32583  0.50667  0.18530  1.0000
  O   O437      1.0  0.29391  0.89766  0.18615  1.0000
  O   O438      1.0  0.25238  0.58932  0.18917  1.0000
  O   O439      1.0  0.85701  0.63219  0.18599  1.0000
  O   O440      1.0  0.69416  0.84540  0.18386  1.0000
  Ti  Ti135     1.0  0.22072  0.72939  0.19415  1.0000
  Ti  Ti136     1.0  0.21774  0.48591  0.18718  1.0000
  O   O441      1.0  0.19291  0.87317  0.19593  1.0000
  O   O442      1.0  0.14885  0.55959  0.19426  1.0000
  O   O443      1.0  0.74904  0.61442  0.19371  1.0000
  O   O444      1.0  0.58973  0.81837  0.19081  1.0000
  Ti  Ti137     1.0  0.11572  0.70553  0.19697  1.0000
  Ti  Ti138     1.0  0.12107  0.44843  0.20130  1.0000
  O   O445      1.0  0.08989  0.85002  0.20019  1.0000
  O   O446      1.0  0.04348  0.53443  0.20257  1.0000
  O   O447      1.0  0.64471  0.58174  0.20201  1.0000
  O   O448      1.0  0.49188  0.78790  0.19832  1.0000
  Ti  Ti139     1.0  0.01601  0.67245  0.20199  1.0000
  Ti  Ti140     1.0  0.01178  0.93409  0.20226  1.0000
  O   O449      1.0  0.97939  0.82613  0.20612  1.0000
  O   O450      1.0  0.94249  0.50503  0.20821  1.0000
  O   O451      1.0  0.54397  0.55462  0.21018  1.0000
  O   O452      1.0  0.38753  0.74358  0.20661  1.0000
  Ti  Ti141     1.0  0.90683  0.65890  0.20971  1.0000
  Ti  Ti142     1.0  0.91093  0.90429  0.21279  1.0000
  O   O453      1.0  0.87806  0.79132  0.21397  1.0000
  O   O454      1.0  0.83634  0.48002  0.21835  1.0000
  O   O455      1.0  0.44042  0.53817  0.21718  1.0000
  O   O456      1.0  0.28461  0.72881  0.21472  1.0000
  Ti  Ti143     1.0  0.80631  0.61517  0.21479  1.0000
  Ti  Ti144     1.0  0.80640  0.86682  0.21978  1.0000
  O   O457      1.0  0.77870  0.76562  0.21860  1.0000
  O   O458      1.0  0.73698  0.44525  0.22337  1.0000
  O   O459      1.0  0.33568  0.50488  0.22447  1.0000
  O   O460      1.0  0.17525  0.71503  0.22139  1.0000
  Ti  Ti145     1.0  0.70354  0.58175  0.22640  1.0000
  Ti  Ti146     1.0  0.70491  0.83486  0.22516  1.0000
  O   O461      1.0  0.67364  0.73504  0.22651  1.0000
  O   O462      1.0  0.63192  0.91864  0.22793  1.0000
  O   O463      1.0  0.23000  0.48108  0.23411  1.0000
  O   O464      1.0  0.07475  0.67706  0.22559  1.0000
  Ti  Ti147     1.0  0.60387  0.55657  0.23015  1.0000
  Ti  Ti148     1.0  0.60365  0.81511  0.23435  1.0000
  O   O465      1.0  0.57080  0.70401  0.23395  1.0000
  O   O466      1.0  0.52849  0.89000  0.23931  1.0000
  O   O467      1.0  0.13090  0.44193  0.23860  1.0000
  O   O468      1.0  0.96727  0.66859  0.23469  1.0000
  Ti  Ti149     1.0  0.50268  0.53178  0.24170  1.0000
  Ti  Ti150     1.0  0.50034  0.78639  0.23909  1.0000
  O   O469      1.0  0.46777  0.67631  0.24251  1.0000
  O   O470      1.0  0.42317  0.86178  0.24132  1.0000
  O   O471      1.0  0.02427  0.92086  0.24463  1.0000
  O   O472      1.0  0.86572  0.62473  0.24089  1.0000
  Ti  Ti151     1.0  0.39703  0.51312  0.24974  1.0000
  Ti  Ti152     1.0  0.39933  0.75078  0.24900  1.0000
  O   O473      1.0  0.36693  0.65114  0.25277  1.0000
  O   O474      1.0  0.32277  0.84312  0.25226  1.0000
  O   O475      1.0  0.91738  0.89787  0.25355  1.0000
  O   O476      1.0  0.76108  0.60134  0.24699  1.0000
  Ti  Ti153     1.0  0.29039  0.48768  0.25513  1.0000
  Ti  Ti154     1.0  0.29095  0.73940  0.25568  1.0000
  O   O477      1.0  0.25887  0.63092  0.25720  1.0000
  O   O478      1.0  0.22322  0.81117  0.25654  1.0000
  O   O479      1.0  0.81151  0.87305  0.25802  1.0000
  O   O480      1.0  0.66123  0.56358  0.25546  1.0000
  Ti  Ti155     1.0  0.18593  0.45887  0.26204  1.0000
  Ti  Ti156     1.0  0.18658  0.71169  0.26200  1.0000
  O   O481      1.0  0.16042  0.60753  0.26664  1.0000
  O   O482      1.0  0.11821  0.79441  0.26515  1.0000
  O   O483      1.0  0.71305  0.82738  0.26711  1.0000
  O   O484      1.0  0.55803  0.54793  0.26284  1.0000
  Ti  Ti157     1.0  0.08897  0.92913  0.27159  1.0000
  Ti  Ti158     1.0  0.08183  0.67757  0.27044  1.0000
  O   O485      1.0  0.05071  0.57642  0.26892  1.0000
  O   O486      1.0  0.01507  0.76131  0.27358  1.0000
  O   O487      1.0  0.61245  0.80857  0.27437  1.0000
  O   O488      1.0  0.45858  0.51005  0.26898  1.0000
  Ti  Ti159     1.0  0.98549  0.90395  0.27473  1.0000
  Ti  Ti160     1.0  0.97284  0.66608  0.27387  1.0000
  O   O489      1.0  0.94854  0.55122  0.27662  1.0000
  O   O490      1.0  0.90295  0.73214  0.27882  1.0000
  O   O491      1.0  0.50952  0.78995  0.28119  1.0000
  O   O492      1.0  0.35084  0.49673  0.27847  1.0000
  Ti  Ti161     1.0  0.87935  0.88185  0.28451  1.0000
  Ti  Ti162     1.0  0.87252  0.62605  0.27896  1.0000
  O   O493      1.0  0.84779  0.52057  0.28434  1.0000
  O   O494      1.0  0.80193  0.70430  0.28846  1.0000
  O   O495      1.0  0.40215  0.76678  0.28912  1.0000
  O   O496      1.0  0.24510  0.47034  0.28669  1.0000
  Ti  Ti163     1.0  0.77766  0.84396  0.28901  1.0000
  Ti  Ti164     1.0  0.77230  0.59941  0.28798  1.0000
  O   O497      1.0  0.74515  0.48744  0.29002  1.0000
  O   O498      1.0  0.69874  0.67118  0.29483  1.0000
  O   O499      1.0  0.30138  0.73383  0.29720  1.0000
  O   O500      1.0  0.14003  0.94307  0.29111  1.0000
  Ti  Ti165     1.0  0.67477  0.81255  0.29563  1.0000
  Ti  Ti166     1.0  0.66851  0.56972  0.29672  1.0000
  O   O501      1.0  0.63810  0.46065  0.29911  1.0000
  O   O502      1.0  0.60052  0.65013  0.29852  1.0000
  O   O503      1.0  0.19318  0.71762  0.30435  1.0000
  O   O504      1.0  0.03659  0.91421  0.29913  1.0000
  Ti  Ti167     1.0  0.56785  0.78985  0.30058  1.0000
  Ti  Ti168     1.0  0.56720  0.53251  0.30396  1.0000
  O   O505      1.0  0.53436  0.93176  0.30777  1.0000
  O   O506      1.0  0.49076  0.63075  0.30736  1.0000
  O   O507      1.0  0.09129  0.68400  0.30999  1.0000
  O   O508      1.0  0.93542  0.88644  0.30546  1.0000
  Ti  Ti169     1.0  0.46538  0.77176  0.31065  1.0000
  Ti  Ti170     1.0  0.46300  0.52847  0.31737  1.0000
  O   O509      1.0  0.42779  0.91526  0.31480  1.0000
  O   O510      1.0  0.39054  0.60103  0.31864  1.0000
  O   O511      1.0  0.99112  0.65599  0.31823  1.0000
  O   O512      1.0  0.82661  0.86223  0.31310  1.0000
  Ti  Ti171     1.0  0.36194  0.74012  0.31849  1.0000
  Ti  Ti172     1.0  0.35710  0.49709  0.32161  1.0000
  O   O513      1.0  0.32716  0.88121  0.32264  1.0000
  O   O514      1.0  0.28246  0.57263  0.32135  1.0000
  O   O515      1.0  0.88167  0.62451  0.32420  1.0000
  O   O516      1.0  0.72849  0.82397  0.32003  1.0000
  Ti  Ti173     1.0  0.25379  0.73004  0.32655  1.0000
  Ti  Ti174     1.0  0.25562  0.47337  0.32763  1.0000
  O   O517      1.0  0.22300  0.86387  0.33001  1.0000
  O   O518      1.0  0.18148  0.54781  0.33012  1.0000
  O   O519      1.0  0.78177  0.60397  0.33000  1.0000
  O   O520      1.0  0.62085  0.79671  0.32660  1.0000
  Ti  Ti175     1.0  0.14897  0.68284  0.32915  1.0000
  Ti  Ti176     1.0  0.15217  0.93994  0.33811  1.0000
  O   O521      1.0  0.11890  0.83559  0.33574  1.0000
  O   O522      1.0  0.07765  0.51718  0.34189  1.0000
  O   O523      1.0  0.68013  0.56690  0.33929  1.0000
  O   O524      1.0  0.52176  0.77567  0.33459  1.0000
  Ti  Ti177     1.0  0.04403  0.65553  0.34306  1.0000
  Ti  Ti178     1.0  0.05018  0.90549  0.34632  1.0000
  O   O525      1.0  0.01539  0.80083  0.34447  1.0000
  O   O526      1.0  0.97239  0.49424  0.34666  1.0000
  O   O527      1.0  0.57224  0.55749  0.34220  1.0000
  O   O528      1.0  0.41962  0.74900  0.34074  1.0000
  Ti  Ti179     1.0  0.93861  0.62845  0.34396  1.0000
  Ti  Ti180     1.0  0.94395  0.88125  0.34620  1.0000
  O   O529      1.0  0.90838  0.78130  0.34744  1.0000
  O   O530      1.0  0.86946  0.45967  0.35350  1.0000
  O   O531      1.0  0.47251  0.51521  0.35258  1.0000
  O   O532      1.0  0.31535  0.72020  0.35094  1.0000
  Ti  Ti181     1.0  0.83355  0.61011  0.35407  1.0000
  Ti  Ti182     1.0  0.83653  0.87168  0.35761  1.0000
  O   O533      1.0  0.80604  0.75444  0.35809  1.0000
  O   O534      1.0  0.76418  0.94185  0.35877  1.0000
  O   O535      1.0  0.36828  0.49664  0.36123  1.0000
  O   O536      1.0  0.20875  0.69346  0.35555  1.0000
  Ti  Ti183     1.0  0.73145  0.58057  0.36414  1.0000
  Ti  Ti184     1.0  0.73634  0.83320  0.35859  1.0000
  O   O537      1.0  0.70435  0.73151  0.36744  1.0000
  O   O538      1.0  0.66267  0.90907  0.36264  1.0000
  O   O539      1.0  0.26138  0.46998  0.36715  1.0000
  O   O540      1.0  0.10288  0.68552  0.36364  1.0000
  Ti  Ti185     1.0  0.63071  0.55941  0.36789  1.0000
  Ti  Ti186     1.0  0.63281  0.80498  0.36343  1.0000
  O   O541      1.0  0.60243  0.70259  0.37236  1.0000
  O   O542      1.0  0.55779  0.88483  0.37381  1.0000
  O   O543      1.0  0.15791  0.92943  0.37526  1.0000
  O   O544      1.0  0.00528  0.63397  0.37100  1.0000
  Ti  Ti187     1.0  0.52961  0.52158  0.38103  1.0000
  Ti  Ti188     1.0  0.52587  0.78628  0.37342  1.0000
  O   O545      1.0  0.49338  0.67567  0.37898  1.0000
  O   O546      1.0  0.45545  0.85693  0.38097  1.0000
  O   O547      1.0  0.05387  0.90950  0.38397  1.0000
  O   O548      1.0  0.89491  0.61069  0.37777  1.0000
  Ti  Ti189     1.0  0.42634  0.49627  0.38615  1.0000
  Ti  Ti190     1.0  0.42449  0.74907  0.37973  1.0000
  O   O549      1.0  0.39550  0.64157  0.38855  1.0000
  O   O550      1.0  0.35163  0.82764  0.38884  1.0000
  O   O551      1.0  0.95114  0.88032  0.38686  1.0000
  O   O552      1.0  0.79350  0.58848  0.38328  1.0000
  Ti  Ti191     1.0  0.32052  0.47084  0.39769  1.0000
  Ti  Ti192     1.0  0.32160  0.71793  0.38890  1.0000
  O   O553      1.0  0.28900  0.61490  0.39406  1.0000
  O   O554      1.0  0.24757  0.79596  0.39706  1.0000
  O   O555      1.0  0.84938  0.85341  0.39581  1.0000
  O   O556      1.0  0.68799  0.56036  0.39115  1.0000
  Ti  Ti193     1.0  0.22224  0.93810  0.39888  1.0000
  Ti  Ti194     1.0  0.21696  0.68763  0.39527  1.0000
  O   O557      1.0  0.18121  0.58953  0.39837  1.0000
  O   O558      1.0  0.14928  0.77242  0.40586  1.0000
  O   O559      1.0  0.58749  0.54713  0.39767  1.0000
  Ti  Ti195     1.0  0.11512  0.91355  0.41081  1.0000
  Ti  Ti196     1.0  0.11271  0.67520  0.40036  1.0000
  O   O560      1.0  0.08314  0.55949  0.40842  1.0000
  O   O561      1.0  0.04289  0.74263  0.40991  1.0000
  O   O562      1.0  0.48207  0.51159  0.40553  1.0000
  Ti  Ti197     1.0  0.01291  0.87440  0.41806  1.0000
  Ti  Ti198     1.0  0.01033  0.62876  0.41006  1.0000
  O   O563      1.0  0.97837  0.52963  0.41734  1.0000
  O   O564      1.0  0.94371  0.71504  0.41781  1.0000
  O   O565      1.0  0.37997  0.47672  0.41325  1.0000
  Ti  Ti199     1.0  0.90935  0.85656  0.41580  1.0000
  Ti  Ti200     1.0  0.90187  0.59854  0.41700  1.0000
  O   O566      1.0  0.87415  0.49933  0.42104  1.0000
  O   O567      1.0  0.27507  0.44374  0.42187  1.0000
  O   O568      1.0  0.01163  0.55669  0.06028  1.0000
  O   O569      1.0  0.61108  0.59348  0.06315  1.0000
  O   O570      1.0  0.71782  0.61468  0.05718  1.0000
  O   O571      1.0  0.82221  0.64738  0.05081  1.0000
  O   O572      1.0  0.92078  0.68229  0.04077  1.0000
  O   O573      1.0  0.17501  0.91787  0.42767  1.0000
  O   O574      1.0  0.06949  0.89306  0.43630  1.0000
  O   O575      1.0  0.96009  0.86216  0.44048  1.0000
  H   H351      1.0  0.07923  0.79459  0.07084  1.0000
  H   H352      1.0  0.08571  0.89562  0.07169  1.0000
  O   O576      1.0  0.06685  0.85801  0.06127  1.0000
  H   H353      1.0  0.82460  0.75097  0.40948  1.0000
  H   H354      1.0  0.80121  0.65984  0.40686  1.0000
  O   O577      1.0  0.82661  0.69020  0.41818  1.0000
  H   H355      1.0  0.46795  0.13600  0.56901  1.0000
  H   H356      1.0  0.48696  0.20047  0.54966  1.0000
  O   O578      1.0  0.49985  0.15862  0.56600  1.0000
  H   H357      1.0  0.86320  0.01385  0.51341  1.0000
  H   H358      1.0  0.81402  0.99410  0.50073  1.0000
  O   O579      1.0  0.84464  0.00987  0.49498  1.0000
  H   H359      1.0  0.24066  0.52192  0.88178  1.0000
  H   H360      1.0  0.95907  0.52440  0.68903  1.0000
  O   O580      1.0  0.45776  0.70776  0.62126  1.0000
  H   H361      1.0  0.40620  0.84903  0.42872  1.0000
  H   H362      1.0  0.23344  0.11771  0.45808  1.0000
  O   O581      1.0  0.33720  0.69804  0.43275  1.0000
  H   H363      1.0  0.84488  0.17225  0.71260  1.0000
  H   H364      1.0  0.43818  0.69730  0.63794  1.0000
  O   O582      1.0  0.42966  0.78178  0.42962  1.0000
  H   H365      1.0  0.02028  0.86970  0.96746  1.0000
  H   H366      1.0  0.96651  0.92684  0.95693  1.0000
  O   O583      1.0  0.98708  0.85995  0.96349  1.0000
  H   H367      1.0  0.61231  0.89600  0.41235  1.0000
  H   H368      1.0  0.63548  0.79731  0.43019  1.0000
  O   O584      1.0  0.63743  0.83291  0.41184  1.0000
  H   H369      1.0  0.70323  0.82690  0.41085  1.0000
  H   H370      1.0  0.73665  0.90253  0.40928  1.0000
  O   O585      1.0  0.73805  0.83666  0.40785  1.0000
  H   H371      1.0  0.47735  0.32514  0.48216  1.0000
  H   H372      1.0  0.49408  0.34534  0.45375  1.0000
  O   O586      1.0  0.46373  0.33942  0.46351  1.0000
  H   H373      1.0  0.20113  0.65208  0.67493  1.0000
  H   H374      1.0  0.81298  0.18019  0.58783  1.0000
  O   O587      1.0  0.88736  0.87473  0.03002  1.0000
  H   H375      1.0  0.54114  0.93854  0.73214  1.0000
  H   H376      1.0  0.29156  0.86850  0.81848  1.0000
  O   O588      1.0  0.53236  0.88817  0.72101  1.0000
  H   H377      1.0  0.18046  0.65293  0.75254  1.0000
  H   H378      1.0  0.38365  0.66401  0.06990  1.0000
  O   O589      1.0  0.65936  0.85574  0.04488  1.0000
  H   H379      1.0  0.47297  0.58423  0.47722  1.0000
  H   H380      1.0  0.49984  0.67629  0.48227  1.0000
  O   O590      1.0  0.50560  0.59958  0.47964  1.0000
  H   H381      1.0  0.44345  0.08496  0.69763  1.0000
  H   H382      1.0  0.37636  0.48121  0.76750  1.0000
  O   O591      1.0  0.45127  0.85003  0.05751  1.0000
  H   H383      1.0  0.66017  0.92159  0.57749  1.0000
  H   H384      1.0  0.66057  0.81799  0.56418  1.0000
  O   O592      1.0  0.67720  0.85163  0.57753  1.0000
  H   H385      1.0  0.27981  0.70842  0.06537  1.0000
  H   H386      1.0  0.26054  0.82903  0.06682  1.0000
  O   O593      1.0  0.25234  0.76653  0.07349  1.0000
  H   H387      1.0  0.19736  0.72001  0.08044  1.0000
  H   H388      1.0  0.17209  0.63414  0.08396  1.0000
  O   O594      1.0  0.16205  0.70788  0.08367  1.0000
  H   H389      1.0  0.00006  0.85023  0.02208  1.0000
  H   H390      1.0  0.96895  0.96336  0.01162  1.0000
  O   O595      1.0  0.98910  0.42325  0.02630  1.0000
  H   H391      1.0  0.87006  0.89835  0.47184  1.0000
  H   H392      1.0  0.83116  0.84638  0.45995  1.0000
  O   O596      1.0  0.87177  0.83776  0.46003  1.0000
  H   H393      1.0  0.06476  0.66834  0.02588  1.0000
  H   H394      1.0  0.00248  0.69331  0.01439  1.0000
  O   O597      1.0  0.02544  0.70571  0.02938  1.0000
  H   H395      1.0  0.06795  0.75549  0.52381  1.0000
  H   H396      1.0  0.08737  0.81482  0.50104  1.0000
  O   O598      1.0  0.08052  0.74969  0.50470  1.0000
  H   H397      1.0  0.26687  0.38440  0.50850  1.0000
  H   H398      1.0  0.32659  0.33675  0.49753  1.0000
  O   O599      1.0  0.29733  0.39496  0.49889  1.0000
  H   H399      1.0  0.02537  0.99913  0.71420  1.0000
  H   H400      1.0  0.01783  0.06392  0.68814  1.0000
  O   O600      1.0  0.02888  0.99464  0.69380  1.0000
  H   H401      1.0  0.42046  0.78074  0.82650  1.0000
  H   H402      1.0  0.36918  0.77193  0.84111  1.0000
  O   O601      1.0  0.40590  0.73704  0.83913  1.0000
  H   H403      1.0  0.08533  0.07743  0.64313  1.0000
  H   H404      1.0  0.11359  0.00382  0.62069  1.0000
  O   O602      1.0  0.07904  0.04668  0.62652  1.0000
  H   H405      1.0  0.33235  0.61188  0.03268  1.0000
  H   H406      1.0  0.30987  0.57213  0.05994  1.0000
  O   O603      1.0  0.29998  0.60797  0.04214  1.0000
  H   H407      1.0  0.91157  0.42375  0.82467  1.0000
  H   H408      1.0  0.92043  0.41753  0.85817  1.0000
  O   O604      1.0  0.89551  0.44452  0.84276  1.0000
  H   H409      1.0  0.43980  0.46438  0.47079  1.0000
  H   H410      1.0  0.52612  0.20432  0.85658  1.0000
  O   O605      1.0  0.55698  0.22844  0.85443  1.0000
  H   H411      1.0  0.07074  0.82958  0.75745  1.0000
  H   H412      1.0  0.02985  0.80093  0.73612  1.0000
  O   O606      1.0  0.05077  0.78499  0.75441  1.0000
  H   H413      1.0  0.63867  0.53605  0.52165  1.0000
  H   H414      1.0  0.10388  0.38333  0.01165  1.0000
  O   O607      1.0  0.63099  0.60377  0.51430  1.0000
  H   H415      1.0  0.36947  0.76795  0.05674  1.0000
  H   H416      1.0  0.40233  0.43789  0.74282  1.0000
  O   O608      1.0  0.36292  0.73415  0.07314  1.0000
  H   H417      1.0  0.73256  0.06402  0.62475  1.0000
  H   H418      1.0  0.69247  0.12624  0.64750  1.0000
  O   O609      1.0  0.71013  0.13141  0.62967  1.0000
  H   H419      1.0  0.83306  0.71210  0.88836  1.0000
  H   H420      1.0  0.55182  0.78377  0.04254  1.0000
  O   O610      1.0  0.37008  0.44362  0.75207  1.0000
  H   H421      1.0  0.52406  0.73100  0.62428  1.0000
  H   H422      1.0  0.57368  0.68610  0.60545  1.0000
  O   O611      1.0  0.56006  0.72801  0.62243  1.0000
  H   H423      1.0  0.57864  0.93674  0.48943  1.0000
  H   H424      1.0  0.63145  0.95886  0.48853  1.0000
  O   O612      1.0  0.61560  0.90518  0.48554  1.0000
  H   H425      1.0  0.74748  0.69280  0.61618  1.0000
  H   H426      1.0  0.20141  0.65099  0.44924  1.0000
  O   O613      1.0  0.71196  0.69847  0.61084  1.0000
  H   H427      1.0  0.32051  0.44417  0.98813  1.0000
  H   H428      1.0  0.32958  0.37062  0.83099  1.0000
  O   O614      1.0  0.32652  0.37398  0.98912  1.0000
  H   H429      1.0  0.63952  0.79294  0.87706  1.0000
  H   H430      1.0  0.69640  0.78647  0.86539  1.0000
  O   O615      1.0  0.67707  0.75919  0.87783  1.0000
  H   H431      1.0  0.93058  0.96273  0.78006  1.0000
  H   H432      1.0  0.91758  0.93403  0.75069  1.0000
  O   O616      1.0  0.93200  0.97834  0.76125  1.0000
  H   H433      1.0  0.53348  0.47660  0.69022  1.0000
  H   H434      1.0  0.50409  0.43405  0.66770  1.0000
  O   O617      1.0  0.49807  0.47554  0.68422  1.0000
  H   H435      1.0  0.13464  0.10699  0.69029  1.0000
  H   H436      1.0  0.15908  0.09555  0.66035  1.0000
  O   O618      1.0  0.13547  0.07020  0.67241  1.0000
  H   H437      1.0  0.64592  0.33268  0.03438  1.0000
  H   H438      1.0  0.86065  0.86289  0.81125  1.0000
  O   O619      1.0  0.88424  0.80460  0.79966  1.0000
  H   H439      1.0  0.01153  0.74087  0.77562  1.0000
  H   H440      1.0  0.94977  0.78127  0.78693  1.0000
  O   O620      1.0  0.98375  0.73116  0.78866  1.0000
  H   H441      1.0  0.98280  0.76555  0.64167  1.0000
  H   H442      1.0  0.04532  0.72482  0.64369  1.0000
  O   O621      1.0  0.01565  0.77990  0.64943  1.0000
  H   H443      1.0  0.27986  0.56656  0.85169  1.0000
  H   H444      1.0  0.67922  0.26362  0.86225  1.0000
  O   O622      1.0  0.68924  0.23012  0.88002  1.0000
  H   H445      1.0  0.29202  0.51939  0.55490  1.0000
  H   H446      1.0  0.30836  0.46440  0.52761  1.0000
  O   O623      1.0  0.32507  0.47980  0.54499  1.0000
  H   H447      1.0  0.56887  0.68259  0.94517  1.0000
  H   H448      1.0  0.41435  0.50814  0.06142  1.0000
  O   O624      1.0  0.56764  0.61738  0.95251  1.0000
  H   H449      1.0  0.15850  0.50151  0.95704  1.0000
  H   H450      1.0  0.19614  0.41244  0.97628  1.0000
  O   O625      1.0  0.33826  0.70894  0.76750  1.0000
  H   H451      1.0  0.63533  0.24532  0.54528  1.0000
  H   H452      1.0  0.69130  0.18909  0.55099  1.0000
  O   O626      1.0  0.65758  0.20730  0.56038  1.0000
  H   H453      1.0  0.44746  0.18336  0.73187  1.0000
  H   H454      1.0  0.40805  0.23599  0.71053  1.0000
  O   O627      1.0  0.44541  0.20818  0.71382  1.0000
  H   H455      1.0  0.63340  0.06621  0.52780  1.0000
  H   H456      1.0  0.23930  0.62341  0.75503  1.0000
  O   O628      1.0  0.20684  0.65396  0.76592  1.0000
  H   H457      1.0  0.91975  0.59301  0.47526  1.0000
  H   H458      1.0  0.88853  0.70975  0.46792  1.0000
  O   O629      1.0  0.90364  0.63824  0.46052  1.0000
  H   H459      1.0  0.31085  0.13261  0.53958  1.0000
  H   H460      1.0  0.37337  0.65238  0.43503  1.0000
  O   O630      1.0  0.34871  0.10525  0.53798  1.0000
  H   H461      1.0  0.12088  0.87954  0.73094  1.0000
  H   H462      1.0  0.15141  0.87550  0.75925  1.0000
  O   O631      1.0  0.11616  0.88228  0.75097  1.0000
  H   H463      1.0  0.38856  0.48339  0.88698  1.0000
  H   H464      1.0  0.36346  0.56666  0.90920  1.0000
  O   O632      1.0  0.37468  0.55567  0.88965  1.0000
  H   H465      1.0  0.52538  0.34403  0.86091  1.0000
  H   H466      1.0  0.48156  0.43829  0.85071  1.0000
  O   O633      1.0  0.50477  0.41238  0.86767  1.0000
  H   H467      1.0  0.94868  0.62284  0.77989  1.0000
  H   H468      1.0  0.90593  0.61354  0.76131  1.0000
  O   O634      1.0  0.93660  0.57045  0.77147  1.0000
  H   H469      1.0  0.07840  0.22406  0.71672  1.0000
  H   H470      1.0  0.09132  0.18168  0.75082  1.0000
  O   O635      1.0  0.10599  0.19507  0.73186  1.0000
  H   H471      1.0  0.35896  0.58970  0.81893  1.0000
  H   H472      1.0  0.26937  0.06707  0.98396  1.0000
  O   O636      1.0  0.25217  0.03079  0.97198  1.0000
  H   H473      1.0  0.12465  0.59570  0.98889  1.0000
  H   H474      1.0  0.11072  0.68071  0.96663  1.0000
  O   O637      1.0  0.11679  0.60904  0.96927  1.0000
  H   H475      1.0  0.22383  0.49143  0.85329  1.0000
  H   H476      1.0  0.56436  0.74453  0.43415  1.0000
  O   O638      1.0  0.25051  0.46921  0.86817  1.0000
  H   H477      1.0  0.85687  0.90647  0.01806  1.0000
  H   H478      1.0  0.00143  0.80007  0.68633  1.0000
  O   O639      1.0  0.00070  0.83648  0.70348  1.0000
  H   H479      1.0  0.78266  0.42094  0.83064  1.0000
  H   H480      1.0  0.82480  0.44788  0.84403  1.0000
  O   O640      1.0  0.78919  0.47786  0.83893  1.0000
  H   H481      1.0  0.71877  0.92749  0.86013  1.0000
  H   H482      1.0  0.76633  0.97099  0.85396  1.0000
  O   O641      1.0  0.74910  0.94131  0.86868  1.0000
  H   H483      1.0  0.54810  0.66526  0.41736  1.0000
  H   H484      1.0  0.69980  0.76855  0.60513  1.0000
  O   O642      1.0  0.53720  0.74074  0.42022  1.0000
  H   H485      1.0  0.31740  0.36074  0.76427  1.0000
  H   H486      1.0  0.28151  0.29420  0.77429  1.0000
  O   O643      1.0  0.31592  0.29308  0.76940  1.0000
  H   H487      1.0  0.41256  0.93511  0.61855  1.0000
  H   H488      1.0  0.78828  0.85699  0.02500  1.0000
  O   O644      1.0  0.55156  0.84389  0.05213  1.0000
  H   H489      1.0  0.71677  0.33839  0.81843  1.0000
  H   H490      1.0  0.74590  0.35068  0.79293  1.0000
  O   O645      1.0  0.75188  0.33352  0.81188  1.0000
  H   H491      1.0  0.77524  0.54070  0.97758  1.0000
  H   H492      1.0  0.65770  0.36499  0.51083  1.0000
  O   O646      1.0  0.62106  0.40735  0.51278  1.0000
  H   H493      1.0  0.13043  0.64226  0.65081  1.0000
  H   H494      1.0  0.13213  0.66469  0.61966  1.0000
  O   O647      1.0  0.11528  0.62685  0.63337  1.0000
  H   H495      1.0  0.94533  0.20170  0.66143  1.0000
  H   H496      1.0  0.94406  0.17553  0.69331  1.0000
  O   O648      1.0  0.96605  0.18975  0.67951  1.0000
  H   H497      1.0  0.45734  0.59789  0.94342  1.0000
  H   H498      1.0  0.50916  0.59581  0.95343  1.0000
  O   O649      1.0  0.48034  0.57055  0.95834  1.0000
  H   H499      1.0  0.46539  0.21094  0.78185  1.0000
  H   H500      1.0  0.44028  0.11676  0.77709  1.0000
  O   O650      1.0  0.46002  0.15884  0.76976  1.0000
  H   H501      1.0  0.10662  0.20333  0.52669  1.0000
  H   H502      1.0  0.07287  0.30892  0.51914  1.0000
  O   O651      1.0  0.08967  0.24350  0.51042  1.0000
  H   H503      1.0  0.58053  0.82034  0.70368  1.0000
  H   H504      1.0  0.46334  0.78017  0.43700  1.0000
  O   O652      1.0  0.22527  0.68685  0.44333  1.0000
  H   H505      1.0  0.49585  0.54878  0.61588  1.0000
  H   H506      1.0  0.50105  0.38884  0.04675  1.0000
  O   O653      1.0  0.52913  0.40337  0.03724  1.0000
  H   H507      1.0  0.93808  0.10175  0.96017  1.0000
  H   H508      1.0  0.99004  0.08193  0.94749  1.0000
  O   O654      1.0  0.95464  0.09786  0.94190  1.0000
  H   H509      1.0  0.86132  0.23216  0.78739  1.0000
  H   H510      1.0  0.89155  0.31158  0.79425  1.0000
  O   O655      1.0  0.88562  0.25170  0.80201  1.0000
  H   H511      1.0  0.64799  0.58841  0.57636  1.0000
  H   H512      1.0  0.58947  0.59858  0.56272  1.0000
  O   O656      1.0  0.60895  0.60979  0.57958  1.0000
  H   H513      1.0  0.49335  0.98964  0.61515  1.0000
  H   H514      1.0  0.45668  0.01803  0.64038  1.0000
  O   O657      1.0  0.45769  0.03644  0.62089  1.0000
  H   H515      1.0  0.23810  0.47578  0.46831  1.0000
  H   H516      1.0  0.64375  0.34483  0.64529  1.0000
  O   O658      1.0  0.20117  0.51181  0.46565  1.0000
  H   H517      1.0  0.94264  0.21037  0.61567  1.0000
  H   H518      1.0  0.89899  0.17486  0.62878  1.0000
  O   O659      1.0  0.92015  0.21915  0.63209  1.0000
  H   H519      1.0  0.89015  0.03758  0.87710  1.0000
  H   H520      1.0  0.87319  0.13313  0.85759  1.0000
  O   O660      1.0  0.87901  0.05833  0.85793  1.0000
  H   H521      1.0  0.97155  0.75509  0.97475  1.0000
  H   H522      1.0  0.99707  0.63854  0.97247  1.0000
  O   O661      1.0  0.97236  0.69269  0.98260  1.0000
  H   H523      1.0  0.05040  0.42106  0.64713  1.0000
  H   H524      1.0  0.06468  0.32776  0.66517  1.0000
  O   O662      1.0  0.07872  0.36048  0.65020  1.0000
  H   H525      1.0  0.26983  0.34514  0.00208  1.0000
  H   H526      1.0  0.25243  0.25196  0.00096  1.0000
  O   O663      1.0  0.23865  0.32464  0.00572  1.0000
  H   H527      1.0  0.54287  0.29170  0.53273  1.0000
  H   H528      1.0  0.58605  0.33528  0.51947  1.0000
  O   O664      1.0  0.57083  0.27792  0.51857  1.0000
  H   H529      1.0  0.75386  0.02480  0.92945  1.0000
  H   H530      1.0  0.83156  0.26052  0.95167  1.0000
  O   O665      1.0  0.72747  0.99362  0.92079  1.0000
  H   H531      1.0  0.73766  0.50996  0.90432  1.0000
  H   H532      1.0  0.70206  0.47043  0.91928  1.0000
  O   O666      1.0  0.73958  0.46594  0.91962  1.0000
  H   H533      1.0  0.61921  0.19014  0.04067  1.0000
  H   H534      1.0  0.58401  0.29588  0.03351  1.0000
  O   O667      1.0  0.61470  0.24416  0.02748  1.0000
  H   H535      1.0  0.90979  0.77838  0.54999  1.0000
  H   H536      1.0  0.90514  0.87452  0.56439  1.0000
  O   O668      1.0  0.91779  0.80215  0.56759  1.0000
  H   H537      1.0  0.02372  0.98569  0.63306  1.0000
  H   H538      1.0  0.00320  0.89294  0.63238  1.0000
  O   O669      1.0  0.99626  0.96265  0.62445  1.0000
  H   H539      1.0  0.23231  0.67180  0.51737  1.0000
  H   H540      1.0  0.28480  0.67390  0.50228  1.0000
  O   O670      1.0  0.25487  0.71644  0.51390  1.0000
  H   H541      1.0  0.11415  0.18929  0.57188  1.0000
  H   H542      1.0  0.16790  0.17133  0.55791  1.0000
  O   O671      1.0  0.13245  0.16616  0.55453  1.0000
  H   H543      1.0  0.14839  0.38168  0.69350  1.0000
  H   H544      1.0  0.13263  0.40680  0.66172  1.0000
  O   O672      1.0  0.15014  0.43110  0.67742  1.0000
  H   H545      1.0  0.28743  0.96518  0.05654  1.0000
  H   H546      1.0  0.29926  0.91092  0.02924  1.0000
  O   O673      1.0  0.27059  0.93361  0.04401  1.0000
  H   H547      1.0  0.13266  0.52526  0.03287  1.0000
  H   H548      1.0  0.96941  0.80599  0.86157  1.0000
  O   O674      1.0  0.99820  0.79552  0.84873  1.0000
  H   H549      1.0  0.88158  0.08276  0.76219  1.0000
  H   H550      1.0  0.82342  0.12371  0.77301  1.0000
  O   O675      1.0  0.84763  0.13742  0.75960  1.0000
  H   H551      1.0  0.26489  0.57177  0.69681  1.0000
  H   H552      1.0  0.29333  0.57134  0.66672  1.0000
  O   O676      1.0  0.26208  0.56495  0.67659  1.0000
  H   H553      1.0  0.64566  0.68386  0.45912  1.0000
  H   H554      1.0  0.62107  0.79413  0.46860  1.0000
  O   O677      1.0  0.61696  0.74799  0.45617  1.0000
  H   H555      1.0  0.26624  0.37647  0.63083  1.0000
  H   H556      1.0  0.31344  0.34890  0.60918  1.0000
  O   O678      1.0  0.27593  0.37281  0.61064  1.0000
  H   H557      1.0  0.87761  0.33074  0.95021  1.0000
  H   H558      1.0  0.83431  0.38827  0.97332  1.0000
  O   O679      1.0  0.86527  0.33181  0.97047  1.0000
  H   H559      1.0  0.66398  0.61524  0.51516  1.0000
  H   H560      1.0  0.60826  0.71939  0.68683  1.0000
  O   O680      1.0  0.61295  0.78779  0.69405  1.0000
  H   H561      1.0  0.70162  0.36171  0.74822  1.0000
  H   H562      1.0  0.74287  0.27027  0.74769  1.0000
  O   O681      1.0  0.73836  0.33519  0.75542  1.0000
  H   H563      1.0  0.17848  0.13174  0.72410  1.0000
  H   H564      1.0  0.23680  0.12158  0.71756  1.0000
  O   O682      1.0  0.21353  0.08751  0.72576  1.0000
  H   H565      1.0  0.34072  0.77994  0.55725  1.0000
  H   H566      1.0  0.24279  0.59020  0.98068  1.0000
  O   O683      1.0  0.37012  0.78024  0.54602  1.0000
  H   H567      1.0  0.46185  0.24610  0.98135  1.0000
  H   H568      1.0  0.80982  0.81684  0.87159  1.0000
  O   O684      1.0  0.84207  0.76298  0.87489  1.0000
  H   H569      1.0  0.10164  0.42323  0.73019  1.0000
  H   H570      1.0  0.11680  0.30433  0.73104  1.0000
  O   O685      1.0  0.13039  0.36274  0.73267  1.0000
  H   H571      1.0  0.19029  0.35450  0.79484  1.0000
  H   H572      1.0  0.18921  0.32127  0.76379  1.0000
  O   O686      1.0  0.21174  0.31327  0.77985  1.0000
  H   H573      1.0  0.95454  0.17898  0.80605  1.0000
  H   H574      1.0  0.98857  0.07556  0.81522  1.0000
  O   O687      1.0  0.99041  0.14310  0.81253  1.0000
  H   H575      1.0  0.44022  0.50115  0.80987  1.0000
  H   H576      1.0  0.24346  0.62530  0.02417  1.0000
  O   O688      1.0  0.21309  0.63300  0.01113  1.0000
  H   H577      1.0  0.54317  0.05323  0.03917  1.0000
  H   H578      1.0  0.27175  0.15866  0.07768  1.0000
  O   O689      1.0  0.55005  0.05173  0.01944  1.0000
  H   H579      1.0  0.41542  0.21208  0.01343  1.0000
  H   H580      1.0  0.24458  0.50207  0.96273  1.0000
  O   O690      1.0  0.26398  0.54882  0.96542  1.0000
  H   H581      1.0  0.73403  0.53477  0.85656  1.0000
  H   H582      1.0  0.68728  0.62289  0.87034  1.0000
  O   O691      1.0  0.70264  0.55034  0.86973  1.0000
  H   H583      1.0  0.94867  0.26089  0.50403  1.0000
  H   H584      1.0  0.90709  0.31395  0.52355  1.0000
  O   O692      1.0  0.92512  0.32758  0.50663  1.0000
  H   H585      1.0  0.55344  0.84245  0.60943  1.0000
  H   H586      1.0  0.53304  0.92561  0.58531  1.0000
  O   O693      1.0  0.54598  0.91220  0.60543  1.0000
  H   H587      1.0  0.35276  0.08198  0.74017  1.0000
  H   H588      1.0  0.34343  0.19011  0.74499  1.0000
  O   O694      1.0  0.37186  0.12884  0.74385  1.0000
  H   H589      1.0  0.54984  0.08156  0.72448  1.0000
  H   H590      1.0  0.51667  0.07735  0.75154  1.0000
  O   O695      1.0  0.55324  0.04807  0.74360  1.0000
  H   H591      1.0  0.72346  0.12743  0.02294  1.0000
  H   H592      1.0  0.69169  0.06978  0.00448  1.0000
  O   O696      1.0  0.71896  0.10674  0.00361  1.0000
  H   H593      1.0  0.25476  0.00212  0.59364  1.0000
  H   H594      1.0  0.25180  0.00541  0.56211  1.0000
  O   O697      1.0  0.23622  0.98031  0.57832  1.0000
  H   H595      1.0  0.52159  0.85332  0.73611  1.0000
  H   H596      1.0  0.30353  0.91960  0.79133  1.0000
  O   O698      1.0  0.29277  0.86451  0.79793  1.0000
  H   H597      1.0  0.67837  0.94169  0.75672  1.0000
  H   H598      1.0  0.61818  0.00862  0.75490  1.0000
  O   O699      1.0  0.64399  0.97417  0.76846  1.0000
  H   H599      1.0  0.56490  0.24352  0.83397  1.0000
  H   H600      1.0  0.56158  0.86417  0.54894  1.0000
  O   O700      1.0  0.52444  0.90823  0.55198  1.0000
  H   H601      1.0  0.28236  0.82833  0.85957  1.0000
  H   H602      1.0  0.51748  0.95145  0.53573  1.0000
  O   O701      1.0  0.09147  0.81790  0.96551  1.0000
  H   H603      1.0  0.48898  0.70405  0.55441  1.0000
  H   H604      1.0  0.39737  0.29376  0.57994  1.0000
  O   O702      1.0  0.38052  0.36016  0.58571  1.0000
  H   H605      1.0  0.33262  0.13762  0.01344  1.0000
  H   H606      1.0  0.31989  0.14720  0.98276  1.0000
  O   O703      1.0  0.30321  0.14067  0.00079  1.0000
  H   H607      1.0  0.87221  0.69166  0.84920  1.0000
  H   H608      1.0  0.87936  0.60116  0.82986  1.0000
  O   O704      1.0  0.89339  0.65522  0.83328  1.0000
  H   H609      1.0  0.35986  0.61867  0.66067  1.0000
  H   H610      1.0  0.32247  0.63554  0.63384  1.0000
  O   O705      1.0  0.33928  0.58552  0.64854  1.0000
  H   H611      1.0  0.38325  0.23376  0.67489  1.0000
  H   H612      1.0  0.32850  0.31852  0.67407  1.0000
  O   O706      1.0  0.35034  0.26716  0.68554  1.0000
  H   H613      1.0  0.04591  0.40721  0.94439  1.0000
  H   H614      1.0  0.08010  0.29727  0.93722  1.0000
  O   O707      1.0  0.05192  0.33799  0.94910  1.0000
  H   H615      1.0  0.64480  0.97845  0.98744  1.0000
  H   H616      1.0  0.61346  0.02737  0.01381  1.0000
  O   O708      1.0  0.65051  0.99741  0.00604  1.0000
  H   H617      1.0  0.48499  0.96863  0.44116  1.0000
  H   H618      1.0  0.43575  0.00014  0.45913  1.0000
  O   O709      1.0  0.47395  0.96995  0.46014  1.0000
  H   H619      1.0  0.19047  0.61640  0.79626  1.0000
  H   H620      1.0  0.17773  0.52700  0.80835  1.0000
  O   O710      1.0  0.17454  0.59318  0.81220  1.0000
  H   H621      1.0  0.21235  0.04495  0.51096  1.0000
  H   H622      1.0  0.21772  0.93635  0.50140  1.0000
  O   O711      1.0  0.22542  0.97501  0.51820  1.0000
  H   H623      1.0  0.82309  0.86502  0.66020  1.0000
  H   H624      1.0  0.83861  0.78576  0.68200  1.0000
  O   O712      1.0  0.83862  0.79348  0.66163  1.0000
  H   H625      1.0  0.66737  0.26686  0.91258  1.0000
  H   H626      1.0  0.67701  0.28811  0.94672  1.0000
  O   O713      1.0  0.65076  0.29544  0.93164  1.0000
  H   H627      1.0  0.36669  0.31155  0.05595  1.0000
  H   H628      1.0  0.32014  0.39519  0.07008  1.0000
  O   O714      1.0  0.33371  0.32344  0.06651  1.0000
  H   H629      1.0  0.00429  0.64510  0.47150  1.0000
  H   H630      1.0  0.11854  0.74279  0.45562  1.0000
  O   O715      1.0  0.02704  0.60739  0.45706  1.0000
  H   H631      1.0  0.57765  0.86667  0.04121  1.0000
  H   H632      1.0  0.55295  0.78130  0.90213  1.0000
  O   O716      1.0  0.56597  0.75682  0.88380  1.0000
  H   H633      1.0  0.83756  0.00149  0.84037  1.0000
  H   H634      1.0  0.79676  0.01696  0.81460  1.0000
  O   O717      1.0  0.81250  0.97135  0.82946  1.0000
  H   H635      1.0  0.67161  0.07205  0.77425  1.0000
  H   H636      1.0  0.68846  0.15484  0.75913  1.0000
  O   O718      1.0  0.67000  0.14241  0.77614  1.0000
  H   H637      1.0  0.82526  0.97891  0.62569  1.0000
  H   H638      1.0  0.80433  0.88506  0.61965  1.0000
  O   O719      1.0  0.79378  0.95429  0.62661  1.0000
  H   H639      1.0  0.00943  0.01045  0.55072  1.0000
  H   H640      1.0  0.99277  0.09304  0.52688  1.0000
  O   O720      1.0  0.98029  0.06485  0.54504  1.0000
  H   H641      1.0  0.04576  0.15893  0.78326  1.0000
  H   H642      1.0  0.41447  0.26774  0.90926  1.0000
  O   O721      1.0  0.39256  0.22468  0.90567  1.0000
  H   H643      1.0  0.10031  0.51905  0.68749  1.0000
  H   H644      1.0  0.45031  0.51239  0.54808  1.0000
  O   O722      1.0  0.48164  0.46024  0.55535  1.0000
  H   H645      1.0  0.64774  0.54099  0.45483  1.0000
  H   H646      1.0  0.67793  0.57102  0.42904  1.0000
  O   O723      1.0  0.67705  0.56817  0.44985  1.0000
  H   H647      1.0  0.74486  0.20570  0.62466  1.0000
  H   H648      1.0  0.77709  0.27862  0.63633  1.0000
  O   O724      1.0  0.76302  0.25414  0.61910  1.0000
  H   H649      1.0  0.29601  0.16009  0.92927  1.0000
  H   H650      1.0  0.24307  0.15795  0.91826  1.0000
  O   O725      1.0  0.27671  0.11485  0.92509  1.0000
  H   H651      1.0  0.00306  0.18207  0.84122  1.0000
  H   H652      1.0  0.04723  0.19106  0.85844  1.0000
  O   O726      1.0  0.00943  0.18795  0.86074  1.0000
  H   H653      1.0  0.69027  0.18206  0.71758  1.0000
  H   H654      1.0  0.74514  0.11010  0.72162  1.0000
  O   O727      1.0  0.72175  0.17219  0.73091  1.0000
  H   H655      1.0  0.18999  0.63399  0.90586  1.0000
  H   H656      1.0  0.22576  0.60591  0.92781  1.0000
  O   O728      1.0  0.22717  0.63187  0.90902  1.0000
  H   H657      1.0  0.69121  0.63612  0.63335  1.0000
  H   H658      1.0  0.70348  0.52237  0.63601  1.0000
  O   O729      1.0  0.70018  0.57815  0.64675  1.0000
  H   H659      1.0  0.15204  0.40726  0.89032  1.0000
  H   H660      1.0  0.09355  0.44375  0.88148  1.0000
  O   O730      1.0  0.12656  0.45608  0.87714  1.0000
  H   H661      1.0  0.61336  0.83147  0.51746  1.0000
  H   H662      1.0  0.61801  0.73021  0.53135  1.0000
  O   O731      1.0  0.61542  0.79918  0.53531  1.0000
  H   H663      1.0  0.84294  0.66313  0.93219  1.0000
  H   H664      1.0  0.78393  0.72102  0.91848  1.0000
  O   O732      1.0  0.81886  0.66789  0.91653  1.0000
  H   H665      1.0  0.71717  0.20207  0.98463  1.0000
  H   H666      1.0  0.75493  0.23085  0.96188  1.0000
  O   O733      1.0  0.72268  0.25327  0.97223  1.0000
  H   H667      1.0  0.47048  0.46526  0.62216  1.0000
  H   H668      1.0  0.44139  0.92279  0.06339  1.0000
  O   O734      1.0  0.50320  0.47729  0.61362  1.0000
  H   H669      1.0  0.52055  0.53526  0.54926  1.0000
  H   H670      1.0  0.53093  0.59101  0.52259  1.0000
  O   O735      1.0  0.53317  0.59250  0.54322  1.0000
  H   H671      1.0  0.27925  0.05593  0.76731  1.0000
  H   H672      1.0  0.30649  0.95127  0.75145  1.0000
  O   O736      1.0  0.31234  0.00838  0.75837  1.0000
  H   H673      1.0  0.31487  0.07857  0.69087  1.0000
  H   H674      1.0  0.30970  0.18638  0.68598  1.0000
  O   O737      1.0  0.28702  0.14550  0.68970  1.0000
  H   H675      1.0  0.08281  0.74752  0.84709  1.0000
  H   H676      1.0  0.80104  0.24879  0.92306  1.0000
  O   O738      1.0  0.81220  0.22119  0.94256  1.0000
  H   H677      1.0  0.93774  0.20741  0.92181  1.0000
  H   H678      1.0  0.89643  0.26911  0.89871  1.0000
  O   O739      1.0  0.91299  0.27552  0.91677  1.0000
  H   H679      1.0  0.09224  0.92959  0.68834  1.0000
  H   H680      1.0  0.14845  0.92148  0.68836  1.0000
  O   O740      1.0  0.12605  0.88789  0.69407  1.0000
  H   H681      1.0  0.38260  0.07019  0.78051  1.0000
  H   H682      1.0  0.37410  0.06387  0.81193  1.0000
  O   O741      1.0  0.40366  0.04976  0.79797  1.0000
  H   H683      1.0  0.95173  0.43390  0.50719  1.0000
  H   H684      1.0  0.99909  0.47569  0.50227  1.0000
  O   O742      1.0  0.96271  0.48327  0.49521  1.0000
  H   H685      1.0  0.45024  0.97166  0.89449  1.0000
  H   H686      1.0  0.44280  0.02402  0.92143  1.0000
  O   O743      1.0  0.42165  0.01045  0.90624  1.0000
  H   H687      1.0  0.79779  0.54448  0.80675  1.0000
  H   H688      1.0  0.80164  0.52538  0.77561  1.0000
  O   O744      1.0  0.79120  0.58206  0.78911  1.0000
  H   H689      1.0  0.85380  0.21016  0.56847  1.0000
  H   H690      1.0  0.00129  0.90254  0.69705  1.0000
  O   O745      1.0  0.83236  0.16301  0.57024  1.0000
  H   H691      1.0  0.16477  0.11729  0.45207  1.0000
  H   H692      1.0  0.20543  0.27724  0.44704  1.0000
  O   O746      1.0  0.69704  0.41404  0.99654  1.0000
  H   H693      1.0  0.75153  0.64045  0.71738  1.0000
  H   H694      1.0  0.78876  0.55614  0.69899  1.0000
  O   O747      1.0  0.78752  0.60137  0.71599  1.0000
  H   H695      1.0  0.89311  0.80065  0.02774  1.0000
  H   H696      1.0  0.75829  0.97338  0.02963  1.0000
  O   O748      1.0  0.76310  0.90405  0.03671  1.0000
  H   H697      1.0  0.91732  0.91456  0.90922  1.0000
  H   H698      1.0  0.56400  0.54678  0.89646  1.0000
  O   O749      1.0  0.53858  0.55510  0.88133  1.0000
  H   H699      1.0  0.36470  0.40556  0.57030  1.0000
  H   H700      1.0  0.07458  0.40190  0.98281  1.0000
  O   O750      1.0  0.07918  0.43406  0.99994  1.0000
  O   O751      1.0  0.33099  0.94342  0.52118  1.0000
  H   H701      1.0  0.35216  0.88602  0.53154  1.0000
  H   H702      1.0  0.29419  0.94013  0.52000  1.0000
  O   O752      1.0  0.46044  0.73058  0.88917  1.0000
  H   H703      1.0  0.48925  0.66937  0.88678  1.0000
  H   H704      1.0  0.43394  0.72795  0.87442  1.0000
  O   O753      1.0  0.40150  0.67915  0.67167  1.0000
  H   H705      1.0  0.43658  0.63177  0.67693  1.0000
  H   H706      1.0  0.39209  0.73595  0.68495  1.0000
  O   O754      1.0  0.13778  0.62449  0.89570  1.0000
  H   H707      1.0  0.13071  0.66144  0.87788  1.0000
  H   H708      1.0  0.14230  0.56182  0.88775  1.0000
  O   O755      1.0  0.99234  0.54978  0.84863  1.0000
  H   H709      1.0  0.95466  0.58354  0.84179  1.0000
  H   H710      1.0  0.98974  0.49235  0.85726  1.0000
  O   O756      1.0  0.76264  0.00438  0.70283  1.0000
  H   H711      1.0  0.75653  0.94871  0.71302  1.0000
  H   H712      1.0  0.73627  0.01386  0.68801  1.0000
  O   O757      1.0  0.14372  0.94609  0.54883  1.0000
  H   H713      1.0  0.13046  0.01443  0.54423  1.0000
  H   H714      1.0  0.17777  0.92922  0.53915  1.0000
  O   O758      1.0  0.18420  0.81636  0.00270  1.0000
  H   H715      1.0  0.18164  0.86287  0.01877  1.0000
  H   H716      1.0  0.20889  0.83452  0.98942  1.0000
  O   O759      1.0  0.97327  0.76136  0.48922  1.0000
  H   H717      1.0  0.96279  0.81172  0.47285  1.0000
  H   H718      1.0  0.00695  0.76440  0.49445  1.0000
  O   O760      1.0  0.86658  0.69341  0.71407  1.0000
  H   H719      1.0  0.88801  0.63731  0.70319  1.0000
  H   H720      1.0  0.83685  0.67068  0.72263  1.0000
  O   O761      1.0  0.61248  0.53670  0.83954  1.0000
  H   H721      1.0  0.58414  0.54625  0.85298  1.0000
  H   H722      1.0  0.64282  0.53633  0.85113  1.0000
  O   O762      1.0  0.15292  0.42532  0.82092  1.0000
  H   H723      1.0  0.11871  0.41999  0.81296  1.0000
  H   H724      1.0  0.14713  0.43339  0.84168  1.0000
  O   O763      1.0  0.63451  0.07622  0.50870  1.0000
  H   H725      1.0  0.60985  0.13963  0.50496  1.0000
  H   H726      1.0  0.65774  0.80466  0.03043  1.0000
  O   O764      1.0  0.16419  0.68900  0.67731  1.0000
  H   H727      1.0  0.93381  0.63495  0.02554  1.0000
  H   H728      1.0  0.15558  0.76309  0.67791  1.0000
  O   O765      1.0  0.93491  0.79091  0.88954  1.0000
  H   H729      1.0  0.96101  0.73322  0.89838  1.0000
  H   H730      1.0  0.89814  0.78523  0.88430  1.0000
  O   O766      1.0  0.71013  0.17673  0.45389  1.0000
  H   H731      1.0  0.74367  0.16225  0.44410  1.0000
  H   H732      1.0  0.70314  0.11227  0.45532  1.0000
  O   O767      1.0  0.80978  0.72184  0.50922  1.0000
  H   H733      1.0  0.78794  0.66965  0.51255  1.0000
  H   H734      1.0  0.79295  0.76577  0.49398  1.0000
  O   O768      1.0  0.37536  0.82776  0.02414  1.0000
  H   H735      1.0  0.39103  0.81396  0.00521  1.0000
  H   H736      1.0  0.40433  0.83608  0.03420  1.0000
  O   O769      1.0  0.19762  0.87177  0.47890  1.0000
  H   H737      1.0  0.18961  0.88431  0.45698  1.0000
  H   H738      1.0  0.21555  0.80342  0.48134  1.0000
  O   O770      1.0  0.11273  0.68371  0.44693  1.0000
  H   H739      1.0  0.04951  0.54997  0.46520  1.0000
  H   H740      1.0  0.43705  0.76381  0.61029  1.0000
  O   O771      1.0  0.60510  0.63604  0.66895  1.0000
  H   H741      1.0  0.63922  0.60362  0.66065  1.0000
  H   H742      1.0  0.57905  0.66995  0.65323  1.0000
  O   O772      1.0  0.67869  0.02575  0.44925  1.0000
  H   H743      1.0  0.64034  0.05457  0.45391  1.0000
  H   H744      1.0  0.67401  0.01585  0.42904  1.0000
  O   O773      1.0  0.93096  0.74144  0.62947  1.0000
  H   H745      1.0  0.89986  0.77071  0.64067  1.0000
  H   H746      1.0  0.92299  0.78104  0.61261  1.0000
  O   O774      1.0  0.23280  0.18614  0.54695  1.0000
  H   H747      1.0  0.22297  0.24395  0.53449  1.0000
  H   H748      1.0  0.23752  0.20801  0.56510  1.0000
  O   O775      1.0  0.40922  0.13891  0.57623  1.0000
  H   H749      1.0  0.41361  0.09304  0.59268  1.0000
  H   H750      1.0  0.38784  0.12231  0.56186  1.0000
  O   O776      1.0  0.88736  0.29985  0.56192  1.0000
  H   H751      1.0  0.87557  0.36258  0.57136  1.0000
  H   H752      1.0  0.92403  0.26181  0.56887  1.0000
  O   O777      1.0  0.51719  0.01178  0.50339  1.0000
  H   H753      1.0  0.50491  0.00730  0.48302  1.0000
  H   H754      1.0  0.52799  0.07377  0.50454  1.0000
  O   O778      1.0  0.74731  0.16683  0.53204  1.0000
  H   H755      1.0  0.77230  0.17880  0.54553  1.0000
  H   H756      1.0  0.75241  0.09633  0.52517  1.0000
  O   O779      1.0  0.72602  0.74507  0.97621  1.0000
  H   H757      1.0  0.71989  0.76197  0.95675  1.0000
  H   H758      1.0  0.75024  0.77452  0.98263  1.0000
  O   O780      1.0  0.60404  0.94669  0.85814  1.0000
  H   H759      1.0  0.61445  0.00519  0.86320  1.0000
  H   H760      1.0  0.58244  0.97490  0.84140  1.0000
  O   O781      1.0  0.13807  0.49938  0.54378  1.0000
  H   H761      1.0  0.14225  0.49149  0.56432  1.0000
  H   H762      1.0  0.14654  0.55636  0.53573  1.0000
  O   O782      1.0  0.68153  0.66373  0.77433  1.0000
  H   H763      1.0  0.71518  0.63051  0.78397  1.0000
  H   H764      1.0  0.65679  0.62352  0.77751  1.0000
  O   O783      1.0  0.90135  0.84897  0.72645  1.0000
  H   H765      1.0  0.88749  0.79181  0.72332  1.0000
  H   H766      1.0  0.93285  0.84112  0.71496  1.0000
  O   O784      1.0  0.21681  0.35327  0.51656  1.0000
  H   H767      1.0  0.18542  0.40222  0.52673  1.0000
  H   H768      1.0  0.20203  0.33687  0.49810  1.0000
  O   O785      1.0  0.53513  0.98037  0.81007  1.0000
  H   H769      1.0  0.56388  0.93052  0.80169  1.0000
  H   H770      1.0  0.52879  0.04432  0.79963  1.0000
  O   O786      1.0  0.03241  0.29511  0.69558  1.0000
  H   H771      1.0  0.00428  0.26765  0.68959  1.0000
  H   H772      1.0  0.00992  0.35458  0.70851  1.0000
  O   O787      1.0  0.30587  0.60170  0.84768  1.0000
  H   H773      1.0  0.67723  0.17148  0.87863  1.0000
  H   H774      1.0  0.32908  0.59256  0.86318  1.0000
  O   O788      1.0  0.69751  0.73354  0.72285  1.0000
  H   H775      1.0  0.66173  0.75564  0.71542  1.0000
  H   H776      1.0  0.35256  0.03446  0.53413  1.0000
  O   O789      1.0  0.02680  0.03571  0.74624  1.0000
  H   H777      1.0  0.06054  0.00194  0.75409  1.0000
  H   H778      1.0  0.00108  0.01247  0.75619  1.0000
  O   O790      1.0  0.16146  0.88357  0.81914  1.0000
  H   H779      1.0  0.18934  0.85948  0.83282  1.0000
  H   H780      1.0  0.13425  0.86418  0.83086  1.0000
  O   O791      1.0  0.46530  0.40051  0.72675  1.0000
  H   H781      1.0  0.47271  0.42969  0.70733  1.0000
  H   H782      1.0  0.46810  0.32999  0.72283  1.0000
  O   O792      1.0  0.96663  0.32240  0.98347  1.0000
  H   H783      1.0  0.98837  0.32076  0.96681  1.0000
  H   H784      1.0  0.92830  0.34397  0.97886  1.0000
  O   O793      1.0  0.75919  0.59490  0.51326  1.0000
  H   H785      1.0  0.75253  0.57214  0.53161  1.0000
  H   H786      1.0  0.77252  0.53633  0.50186  1.0000
  O   O794      1.0  0.28380  0.99818  0.62623  1.0000
  H   H787      1.0  0.26760  0.95008  0.63298  1.0000
  H   H788      1.0  0.32078  0.97283  0.62777  1.0000
  O   O795      1.0  0.59443  0.49011  0.45935  1.0000
  H   H789      1.0  0.58998  0.47435  0.44007  1.0000
  H   H790      1.0  0.55820  0.53472  0.46597  1.0000
