data_image0
_chemical_formula_structural       OTi2O4Ti2O4Ti2O4Ti2O4Ti2O4Ti2O4Ti2O4Ti2O4Ti2O4Ti2O4Ti2O4Ti2O4Ti2O4Ti2O4Ti2O4Ti2O4Ti2O4Ti2O4Ti2O4Ti2O4Ti2O4Ti2O4Ti2O4Ti2O4Ti2O4Ti2O4Ti2O4Ti2O4Ti2O4Ti2O4Ti2O4Ti2O4Ti2O4Ti2O4Ti2O4Ti2O4Ti2O4Ti2O4Ti2O4Ti2O4Ti2O4Ti2O4Ti2O4Ti2O4Ti2O4Ti2O4Ti2O4Ti2O4Ti2O4Ti2O4Ti2O4Ti2O4Ti2O4Ti2O4Ti2O4Ti2O4H2OH2OH2OH2OH2OH2OH2OH2OH2OH2OH2OH2OH2OH2OH2OH4OH2OH2OH2OH2OH2OH2OH2OH2OH2OH2OH2OH2OH2OH2OH2OH2OH2OH2OH2OH2OH2OH2OH2OH2OH2OH2OH2OH2OH2OH2OH2OH2OH2OH2OH2OH2OH2OH2OH2OH2OH2OH2OH2OH2OH2OH2OH2OH2OH2OH2OH2OH2OH2OH2OH2OH2OH2OH2OH2OH2OH2OH2OH2OH2OH2OH2OH2OH2OH2OH2OH2OH2OH2OH2OH2OH2OH2OH2OH2OH2OH2OH2OH2OH2OH2OH2OH2OH2OH2OH2OH2OH2OH2OH2OH2OH2OH2OH2OH2OH2OH2OH2OH2OH2OH2OH2OH2OH2OH2OH2OH2OH2OH2OH2OH2OH2OH2OH2OH2OH2OH2OH2OH2OH2OH2OH2OH2O2H2OH2OH2OH2OH2OH2OH2OH2OH2OH2OTi2O4Ti2O4Ti2O4Ti2O4Ti2O4Ti2O4Ti2O4Ti2O4Ti2O4Ti2O4Ti2O4Ti2O4Ti2O4Ti2O4Ti2O4Ti2O4Ti2O4Ti2O4Ti2O4Ti2O4Ti2O4Ti2O4Ti2O4Ti2O4Ti2O4Ti2O4Ti2O4Ti2O4Ti2O4Ti2O4Ti2O4Ti2O4Ti2O4Ti2O4Ti2O4Ti2O4Ti2O4Ti2O4Ti2O4Ti2O4Ti2O4Ti2O4Ti2O4Ti2O4Ti2O4Ti2O4Ti2O4Ti2O4Ti2O4Ti2O4Ti2O4Ti2O4Ti2O4Ti2O4Ti2O4Ti2O4H2OH2OH2OH2OH2OH2OH2OH2OH2OH2OH2OH2OH2OH2OH2OH4OH2OH2OH2OH2OH2OH2OH2OH2OH2OH2OH2OH2OH2OH2OH2OH2OH2OH2OH2OH2OH2OH2OH2OH2OH2OH2OH2OH2OH2OH2OH2OH2OH2OH2OH2OH2OH2OH2OH2OH2OH2OH2OH2OH2OH2OH2OH2OH2OH2OH2OH2OH2OH2OH2OH2OH2OH2OH2OH2OH2OH2OH2OH2OH2OH2OH2OH2OH2OH2OH2OH2OH2OH2OH2OH2OH2OH2OH2OH2OH2OH2OH2OH2OH2OH2OH2OH2OH2OH2OH2OH2OH2OH2OH2OH2OH2OH2OH2OH2OH2OH2OH2OH2OH2OH2OH2OH2OH2OH2OH2OH2OH2OH2OH2OH2OH2OH2OH2OH2OH2OH2OH2OH2OH2OH2OH2OH2O2H2OH2OH2OH2OH2OH2OH2OH2OH2OH2OTi2O4Ti2O4Ti2O4Ti2O4Ti2O4Ti2O4Ti2O4Ti2O4Ti2O4Ti2O4Ti2O4Ti2O4Ti2O4Ti2O4Ti2O4Ti2O4Ti2O4Ti2O4Ti2O4Ti2O4Ti2O4Ti2O4Ti2O4Ti2O4Ti2O4Ti2O4Ti2O4Ti2O4Ti2O4Ti2O4Ti2O4Ti2O4Ti2O4Ti2O4Ti2O4Ti2O4Ti2O4Ti2O4Ti2O4Ti2O4Ti2O4Ti2O4Ti2O4Ti2O4Ti2O4Ti2O4Ti2O4Ti2O4Ti2O4Ti2O4Ti2O4Ti2O4Ti2O4Ti2O4Ti2O4Ti2O4H2OH2OH2OH2OH2OH2OH2OH2OH2OH2OH2OH2OH2OH2OH2OH4OH2OH2OH2OH2OH2OH2OH2OH2OH2OH2OH2OH2OH2OH2OH2OH2OH2OH2OH2OH2OH2OH2OH2OH2OH2OH2OH2OH2OH2OH2OH2OH2OH2OH2OH2OH2OH2OH2OH2OH2OH2OH2OH2OH2OH2OH2OH2OH2OH2OH2OH2OH2OH2OH2OH2OH2OH2OH2OH2OH2OH2OH2OH2OH2OH2OH2OH2OH2OH2OH2OH2OH2OH2OH2OH2OH2OH2OH2OH2OH2OH2OH2OH2OH2OH2OH2OH2OH2OH2OH2OH2OH2OH2OH2OH2OH2OH2OH2OH2OH2OH2OH2OH2OH2OH2OH2OH2OH2OH2OH2OH2OH2OH2OH2OH2OH2OH2OH2OH2OH2OH2OH2OH2OH2OH2OH2OH2O2H2OH2OH2OH2OH2OH2OH2OH2OH2OH2OTi2O4Ti2O4Ti2O4Ti2O4Ti2O4Ti2O4Ti2O4Ti2O4Ti2O4Ti2O4Ti2O4Ti2O4Ti2O4Ti2O4Ti2O4Ti2O4Ti2O4Ti2O4Ti2O4Ti2O4Ti2O4Ti2O4Ti2O4Ti2O4Ti2O4Ti2O4Ti2O4Ti2O4Ti2O4Ti2O4Ti2O4Ti2O4Ti2O4Ti2O4Ti2O4Ti2O4Ti2O4Ti2O4Ti2O4Ti2O4Ti2O4Ti2O4Ti2O4Ti2O4Ti2O4Ti2O4Ti2O4Ti2O4Ti2O4Ti2O4Ti2O4Ti2O4Ti2O4Ti2O4Ti2O4Ti2O4H2OH2OH2OH2OH2OH2OH2OH2OH2OH2OH2OH2OH2OH2OH2OH4OH2OH2OH2OH2OH2OH2OH2OH2OH2OH2OH2OH2OH2OH2OH2OH2OH2OH2OH2OH2OH2OH2OH2OH2OH2OH2OH2OH2OH2OH2OH2OH2OH2OH2OH2OH2OH2OH2OH2OH2OH2OH2OH2OH2OH2OH2OH2OH2OH2OH2OH2OH2OH2OH2OH2OH2OH2OH2OH2OH2OH2OH2OH2OH2OH2OH2OH2OH2OH2OH2OH2OH2OH2OH2OH2OH2OH2OH2OH2OH2OH2OH2OH2OH2OH2OH2OH2OH2OH2OH2OH2OH2OH2OH2OH2OH2OH2OH2OH2OH2OH2OH2OH2OH2OH2OH2OH2OH2OH2OH2OH2OH2OH2OH2OH2OH2OH2OH2OH2OH2OH2OH2OH2OH2OH2OH2OH2O2H2OH2OH2OH2OH2OH2OH2OH2OH2OH2
_chemical_formula_sum              "O1512 Ti448 H1232"
_cell_length_a       25.9819
_cell_length_b       23.672
_cell_length_c       51.427
_cell_angle_alpha    90
_cell_angle_beta     90
_cell_angle_gamma    90

_space_group_name_H-M_alt    "P 1"
_space_group_IT_number       1

loop_
  _space_group_symop_operation_xyz
  'x, y, z'

loop_
  _atom_site_type_symbol
  _atom_site_label
  _atom_site_symmetry_multiplicity
  _atom_site_fract_x
  _atom_site_fract_y
  _atom_site_fract_z
  _atom_site_occupancy
  O   O1        1.0  0.25334  0.05487  0.03467  1.0000
  Ti  Ti1       1.0  0.25526  0.11982  0.06201  1.0000
  Ti  Ti2       1.0  0.13140  0.05475  0.06375  1.0000
  O   O2        1.0  0.17554  0.12019  0.06189  1.0000
  O   O3        1.0  0.08061  0.11680  0.06041  1.0000
  O   O4        1.0  0.12858  0.05272  0.10031  1.0000
  O   O5        1.0  0.00628  0.05590  0.08559  1.0000
  Ti  Ti3       1.0  0.12430  0.12122  0.12596  1.0000
  Ti  Ti4       1.0  0.00495  0.05792  0.12096  1.0000
  O   O6        1.0  0.05449  0.11505  0.12440  1.0000
  O   O7        1.0  0.20185  0.11704  0.12191  1.0000
  O   O8        1.0  0.25091  0.05294  0.16303  1.0000
  O   O9        1.0  0.13280  0.05816  0.15071  1.0000
  Ti  Ti5       1.0  0.25380  0.11645  0.19058  1.0000
  Ti  Ti6       1.0  0.13159  0.05140  0.19167  1.0000
  O   O10       1.0  0.17828  0.11370  0.19061  1.0000
  O   O11       1.0  0.08084  0.11523  0.18840  1.0000
  O   O12       1.0  0.12595  0.05027  0.22809  1.0000
  O   O13       1.0  0.00225  0.05475  0.21566  1.0000
  Ti  Ti7       1.0  0.12994  0.11510  0.25377  1.0000
  Ti  Ti8       1.0  0.00186  0.05079  0.25625  1.0000
  O   O14       1.0  0.05428  0.11216  0.25305  1.0000
  O   O15       1.0  0.20504  0.11657  0.25140  1.0000
  O   O16       1.0  0.25457  0.05144  0.29200  1.0000
  O   O17       1.0  0.13071  0.05101  0.27774  1.0000
  Ti  Ti9       1.0  0.25941  0.11519  0.31453  1.0000
  Ti  Ti10      1.0  0.13359  0.04512  0.31603  1.0000
  O   O18       1.0  0.17848  0.10630  0.31702  1.0000
  O   O19       1.0  0.07935  0.10536  0.31482  1.0000
  O   O20       1.0  0.12633  0.04936  0.35806  1.0000
  O   O21       1.0  0.00331  0.04368  0.34360  1.0000
  Ti  Ti11      1.0  0.12912  0.11351  0.38123  1.0000
  Ti  Ti12      1.0  0.25625  0.04818  0.37865  1.0000
  O   O22       1.0  0.05233  0.11065  0.38188  1.0000
  O   O23       1.0  0.20446  0.11127  0.37819  1.0000
  O   O24       1.0  0.00142  0.05458  0.42019  1.0000
  O   O25       1.0  0.13033  0.04990  0.40785  1.0000
  Ti  Ti13      1.0  0.25664  0.11490  0.44153  1.0000
  Ti  Ti14      1.0  0.13261  0.05085  0.44546  1.0000
  O   O26       1.0  0.18079  0.11915  0.44690  1.0000
  O   O27       1.0  0.08057  0.11315  0.44744  1.0000
  O   O28       1.0  0.25524  0.04913  0.47095  1.0000
  O   O29       1.0  0.25118  0.17454  0.03600  1.0000
  Ti  Ti15      1.0  0.25324  0.24151  0.05520  1.0000
  Ti  Ti16      1.0  0.12879  0.18061  0.06392  1.0000
  O   O30       1.0  0.17531  0.23816  0.06183  1.0000
  O   O31       1.0  0.08368  0.24251  0.05934  1.0000
  O   O32       1.0  0.12524  0.17985  0.09924  1.0000
  O   O33       1.0  0.00340  0.18059  0.08484  1.0000
  Ti  Ti17      1.0  0.13259  0.24222  0.12707  1.0000
  Ti  Ti18      1.0  0.00003  0.18494  0.12583  1.0000
  O   O34       1.0  0.05227  0.24169  0.12375  1.0000
  O   O35       1.0  0.20799  0.23603  0.12258  1.0000
  O   O36       1.0  0.25543  0.17599  0.16370  1.0000
  O   O37       1.0  0.12827  0.17810  0.14983  1.0000
  Ti  Ti19      1.0  0.25508  0.24308  0.18771  1.0000
  Ti  Ti20      1.0  0.12698  0.17907  0.19030  1.0000
  O   O38       1.0  0.17606  0.23659  0.19024  1.0000
  O   O39       1.0  0.08086  0.24025  0.18671  1.0000
  O   O40       1.0  0.12341  0.17354  0.22874  1.0000
  O   O41       1.0  0.00169  0.18469  0.21540  1.0000
  Ti  Ti21      1.0  0.12956  0.23843  0.25240  1.0000
  Ti  Ti22      1.0  0.00412  0.17457  0.25541  1.0000
  O   O42       1.0  0.05457  0.23771  0.25371  1.0000
  O   O43       1.0  0.20540  0.24438  0.25374  1.0000
  O   O44       1.0  0.25404  0.17726  0.29213  1.0000
  O   O45       1.0  0.12680  0.17756  0.27950  1.0000
  Ti  Ti23      1.0  0.25214  0.23791  0.32052  1.0000
  Ti  Ti24      1.0  0.12980  0.16864  0.31754  1.0000
  O   O46       1.0  0.17733  0.23360  0.31900  1.0000
  O   O47       1.0  0.08139  0.23779  0.31668  1.0000
  O   O48       1.0  0.12623  0.17485  0.35632  1.0000
  O   O49       1.0  0.00378  0.17559  0.34300  1.0000
  Ti  Ti25      1.0  0.13107  0.23863  0.38080  1.0000
  Ti  Ti26      1.0  0.25763  0.17353  0.38043  1.0000
  O   O50       1.0  0.05035  0.23634  0.38398  1.0000
  O   O51       1.0  0.20669  0.23173  0.38330  1.0000
  O   O52       1.0  0.00543  0.16926  0.42044  1.0000
  O   O53       1.0  0.12449  0.17734  0.40682  1.0000
  Ti  Ti27      1.0  0.25455  0.24697  0.45075  1.0000
  Ti  Ti28      1.0  0.12820  0.17271  0.44197  1.0000
  O   O54       1.0  0.17652  0.23350  0.44875  1.0000
  O   O55       1.0  0.08089  0.24117  0.44771  1.0000
  O   O56       1.0  0.25094  0.18106  0.47307  1.0000
  O   O57       1.0  0.24754  0.30226  0.03340  1.0000
  Ti  Ti29      1.0  0.25109  0.36751  0.05764  1.0000
  Ti  Ti30      1.0  0.12710  0.30670  0.06244  1.0000
  O   O58       1.0  0.17838  0.36595  0.06008  1.0000
  O   O59       1.0  0.08201  0.37071  0.06092  1.0000
  O   O60       1.0  0.12967  0.30075  0.09967  1.0000
  O   O61       1.0  0.00804  0.30399  0.08317  1.0000
  Ti  Ti31      1.0  0.12965  0.36946  0.12585  1.0000
  Ti  Ti32      1.0  0.00562  0.31030  0.11879  1.0000
  O   O62       1.0  0.05481  0.37004  0.12455  1.0000
  O   O63       1.0  0.20399  0.36044  0.12437  1.0000
  O   O64       1.0  0.25175  0.29733  0.16496  1.0000
  O   O65       1.0  0.13079  0.30832  0.14971  1.0000
  Ti  Ti33      1.0  0.25161  0.36732  0.18807  1.0000
  Ti  Ti34      1.0  0.13256  0.30254  0.18971  1.0000
  O   O66       1.0  0.17875  0.36712  0.18951  1.0000
  O   O67       1.0  0.08091  0.36773  0.18960  1.0000
  O   O68       1.0  0.12770  0.30038  0.22862  1.0000
  O   O69       1.0  0.00845  0.30646  0.21142  1.0000
  Ti  Ti35      1.0  0.13044  0.36524  0.25061  1.0000
  Ti  Ti36      1.0  0.01351  0.30037  0.25580  1.0000
  O   O70       1.0  0.05366  0.36394  0.25260  1.0000
  O   O71       1.0  0.20310  0.36576  0.25238  1.0000
  O   O72       1.0  0.25631  0.30320  0.29164  1.0000
  O   O73       1.0  0.12643  0.29906  0.27675  1.0000
  Ti  Ti37      1.0  0.25636  0.36384  0.31738  1.0000
  Ti  Ti38      1.0  0.13195  0.29704  0.31397  1.0000
  O   O74       1.0  0.17921  0.36306  0.31306  1.0000
  O   O75       1.0  0.08020  0.36098  0.31981  1.0000
  O   O76       1.0  0.12996  0.30079  0.35725  1.0000
  O   O77       1.0  0.00350  0.30008  0.34404  1.0000
  Ti  Ti39      1.0  0.12067  0.36561  0.38151  1.0000
  Ti  Ti40      1.0  0.24920  0.29876  0.38582  1.0000
  O   O78       1.0  0.05351  0.36511  0.38321  1.0000
  O   O79       1.0  0.21194  0.36317  0.37868  1.0000
  O   O80       1.0  0.00289  0.30184  0.42147  1.0000
  O   O81       1.0  0.13556  0.30374  0.40602  1.0000
  Ti  Ti41      1.0  0.25256  0.37157  0.44935  1.0000
  Ti  Ti42      1.0  0.13014  0.29851  0.44606  1.0000
  O   O82       1.0  0.17897  0.36361  0.44854  1.0000
  O   O83       1.0  0.08163  0.36477  0.44633  1.0000
  O   O84       1.0  0.24382  0.30598  0.47212  1.0000
  O   O85       1.0  0.25733  0.42841  0.03336  1.0000
  Ti  Ti43      1.0  0.25540  0.49817  0.05640  1.0000
  Ti  Ti44      1.0  0.13235  0.43132  0.06393  1.0000
  O   O86       1.0  0.18018  0.48937  0.05688  1.0000
  O   O87       1.0  0.08277  0.48991  0.05945  1.0000
  O   O88       1.0  0.13774  0.43131  0.09906  1.0000
  O   O89       1.0  0.00533  0.43066  0.08372  1.0000
  Ti  Ti45      1.0  0.12832  0.49659  0.12637  1.0000
  Ti  Ti46      1.0  0.00145  0.43208  0.12061  1.0000
  O   O90       1.0  0.05071  0.49515  0.12620  1.0000
  O   O91       1.0  0.20307  0.49482  0.12206  1.0000
  O   O92       1.0  0.25551  0.42703  0.16422  1.0000
  O   O93       1.0  0.12877  0.43019  0.14880  1.0000
  Ti  Ti47      1.0  0.25425  0.48918  0.18574  1.0000
  Ti  Ti48      1.0  0.12695  0.43175  0.18858  1.0000
  O   O94       1.0  0.17773  0.48874  0.18859  1.0000
  O   O95       1.0  0.08249  0.49260  0.18883  1.0000
  O   O96       1.0  0.12867  0.42773  0.22894  1.0000
  O   O97       1.0  0.00432  0.42782  0.21401  1.0000
  Ti  Ti49      1.0  0.12381  0.48867  0.25392  1.0000
  Ti  Ti50      1.0  0.49943  0.42162  0.24771  1.0000
  O   O98       1.0  0.05345  0.48509  0.25435  1.0000
  O   O99       1.0  0.20548  0.49256  0.25449  1.0000
  O   O100      1.0  0.25960  0.42141  0.28995  1.0000
  O   O101      1.0  0.12915  0.42447  0.27830  1.0000
  Ti  Ti51      1.0  0.25674  0.48341  0.31684  1.0000
  Ti  Ti52      1.0  0.12935  0.41910  0.31630  1.0000
  O   O102      1.0  0.18163  0.48828  0.31212  1.0000
  O   O103      1.0  0.08238  0.48473  0.31821  1.0000
  O   O104      1.0  0.13564  0.42705  0.35651  1.0000
  O   O105      1.0  0.00675  0.42081  0.34151  1.0000
  Ti  Ti53      1.0  0.12618  0.49070  0.37893  1.0000
  Ti  Ti54      1.0  0.24806  0.42827  0.38461  1.0000
  O   O106      1.0  0.05243  0.48487  0.38617  1.0000
  O   O107      1.0  0.20175  0.48780  0.38055  1.0000
  O   O108      1.0  0.00054  0.42223  0.42207  1.0000
  O   O109      1.0  0.13714  0.42851  0.40615  1.0000
  Ti  Ti55      1.0  0.26251  0.49368  0.44721  1.0000
  Ti  Ti56      1.0  0.13170  0.42852  0.44282  1.0000
  O   O110      1.0  0.17583  0.48706  0.44901  1.0000
  O   O111      1.0  0.08074  0.49018  0.44675  1.0000
  O   O112      1.0  0.25736  0.43064  0.47137  1.0000
  O   O113      1.0  0.01161  0.05482  0.03481  1.0000
  Ti  Ti57      1.0  0.00788  0.11885  0.05952  1.0000
  Ti  Ti58      1.0  0.38040  0.05454  0.06439  1.0000
  O   O114      1.0  0.42657  0.11761  0.06062  1.0000
  O   O115      1.0  0.33200  0.11579  0.05646  1.0000
  O   O116      1.0  0.38077  0.05208  0.10024  1.0000
  O   O117      1.0  0.25843  0.04952  0.08567  1.0000
  Ti  Ti59      1.0  0.37762  0.11372  0.12442  1.0000
  Ti  Ti60      1.0  0.25310  0.05431  0.12443  1.0000
  O   O118      1.0  0.30154  0.11279  0.12426  1.0000
  O   O119      1.0  0.45310  0.11860  0.12598  1.0000
  O   O120      1.0  0.00168  0.05397  0.16564  1.0000
  O   O121      1.0  0.37402  0.04908  0.15070  1.0000
  Ti  Ti61      1.0  0.00372  0.11026  0.19076  1.0000
  Ti  Ti62      1.0  0.37398  0.05455  0.19110  1.0000
  O   O122      1.0  0.42541  0.11435  0.18956  1.0000
  O   O123      1.0  0.32602  0.11765  0.18590  1.0000
  O   O124      1.0  0.37524  0.05321  0.22839  1.0000
  O   O125      1.0  0.25216  0.05119  0.21364  1.0000
  Ti  Ti63      1.0  0.37404  0.11685  0.25111  1.0000
  Ti  Ti64      1.0  0.25104  0.05656  0.25414  1.0000
  O   O126      1.0  0.30242  0.11878  0.25494  1.0000
  O   O127      1.0  0.45502  0.11306  0.25455  1.0000
  O   O128      1.0  0.49980  0.04558  0.29387  1.0000
  O   O129      1.0  0.38169  0.05284  0.27880  1.0000
  Ti  Ti65      1.0  0.00658  0.10679  0.32179  1.0000
  Ti  Ti66      1.0  0.38036  0.04687  0.31726  1.0000
  O   O130      1.0  0.42669  0.11219  0.31861  1.0000
  O   O131      1.0  0.32881  0.11167  0.31767  1.0000
  O   O132      1.0  0.37668  0.04678  0.35858  1.0000
  O   O133      1.0  0.25847  0.04579  0.34290  1.0000
  Ti  Ti67      1.0  0.37763  0.11141  0.38017  1.0000
  Ti  Ti68      1.0  0.00828  0.04528  0.38226  1.0000
  O   O134      1.0  0.30415  0.11168  0.37881  1.0000
  O   O135      1.0  0.45170  0.11265  0.38210  1.0000
  O   O136      1.0  0.25199  0.04854  0.41906  1.0000
  O   O137      1.0  0.37647  0.04844  0.40807  1.0000
  Ti  Ti69      1.0  0.00453  0.11463  0.44749  1.0000
  Ti  Ti70      1.0  0.38239  0.04871  0.44390  1.0000
  O   O138      1.0  0.42551  0.11048  0.44889  1.0000
  O   O139      1.0  0.33017  0.11598  0.44688  1.0000
  O   O140      1.0  0.00486  0.05260  0.47222  1.0000
  O   O141      1.0  0.00868  0.17487  0.03438  1.0000
  Ti  Ti71      1.0  0.00755  0.23566  0.05589  1.0000
  Ti  Ti72      1.0  0.37950  0.17865  0.06287  1.0000
  O   O142      1.0  0.43115  0.23810  0.05785  1.0000
  O   O143      1.0  0.33404  0.24286  0.05828  1.0000
  O   O144      1.0  0.37743  0.18117  0.09772  1.0000
  O   O145      1.0  0.25662  0.17984  0.08569  1.0000
  Ti  Ti73      1.0  0.37845  0.24277  0.12520  1.0000
  Ti  Ti74      1.0  0.25369  0.17676  0.12549  1.0000
  O   O146      1.0  0.30313  0.23879  0.12592  1.0000
  O   O147      1.0  0.45650  0.24436  0.12160  1.0000
  O   O148      1.0  0.00235  0.17858  0.16462  1.0000
  O   O149      1.0  0.38098  0.17829  0.14891  1.0000
  Ti  Ti75      1.0  0.00247  0.24066  0.19080  1.0000
  Ti  Ti76      1.0  0.38274  0.17764  0.18929  1.0000
  O   O150      1.0  0.42596  0.24132  0.18808  1.0000
  O   O151      1.0  0.33041  0.23824  0.18575  1.0000
  O   O152      1.0  0.38110  0.18066  0.22775  1.0000
  O   O153      1.0  0.25610  0.17797  0.21443  1.0000
  Ti  Ti77      1.0  0.38442  0.24418  0.25260  1.0000
  Ti  Ti78      1.0  0.25514  0.18649  0.25122  1.0000
  O   O154      1.0  0.30536  0.24348  0.25385  1.0000
  O   O155      1.0  0.45578  0.24209  0.25392  1.0000
  O   O156      1.0  0.00404  0.17425  0.29259  1.0000
  O   O157      1.0  0.37677  0.17724  0.27764  1.0000
  Ti  Ti79      1.0  0.00886  0.23782  0.31867  1.0000
  Ti  Ti80      1.0  0.38307  0.17519  0.31466  1.0000
  O   O158      1.0  0.42840  0.23750  0.31598  1.0000
  O   O159      1.0  0.32926  0.23650  0.31797  1.0000
  O   O160      1.0  0.37813  0.17548  0.35759  1.0000
  O   O161      1.0  0.25184  0.17337  0.34198  1.0000
  Ti  Ti81      1.0  0.37544  0.23638  0.38063  1.0000
  Ti  Ti82      1.0  0.00470  0.17222  0.38411  1.0000
  O   O162      1.0  0.30263  0.23634  0.38131  1.0000
  O   O163      1.0  0.45124  0.23678  0.38167  1.0000
  O   O164      1.0  0.25548  0.17355  0.41848  1.0000
  O   O165      1.0  0.37407  0.17094  0.40847  1.0000
  Ti  Ti83      1.0  0.00558  0.24173  0.44775  1.0000
  Ti  Ti84      1.0  0.38003  0.17552  0.44352  1.0000
  O   O166      1.0  0.42944  0.23861  0.44270  1.0000
  O   O167      1.0  0.33273  0.24103  0.45112  1.0000
  O   O168      1.0  0.00447  0.17637  0.47050  1.0000
  O   O169      1.0  0.00852  0.30490  0.03448  1.0000
  Ti  Ti85      1.0  0.00435  0.36539  0.05694  1.0000
  Ti  Ti86      1.0  0.38115  0.30377  0.06283  1.0000
  O   O170      1.0  0.42946  0.36460  0.05817  1.0000
  O   O171      1.0  0.33398  0.36579  0.05734  1.0000
  O   O172      1.0  0.37882  0.30810  0.09849  1.0000
  O   O173      1.0  0.25030  0.30152  0.08345  1.0000
  Ti  Ti87      1.0  0.37781  0.36756  0.12540  1.0000
  Ti  Ti88      1.0  0.25586  0.30300  0.11939  1.0000
  O   O174      1.0  0.30018  0.36620  0.12413  1.0000
  O   O175      1.0  0.45437  0.36551  0.12337  1.0000
  O   O176      1.0  0.00919  0.30319  0.16385  1.0000
  O   O177      1.0  0.37548  0.30331  0.14783  1.0000
  Ti  Ti89      1.0  0.00715  0.36423  0.18466  1.0000
  Ti  Ti90      1.0  0.37406  0.30121  0.19042  1.0000
  O   O178      1.0  0.42742  0.36572  0.18899  1.0000
  O   O179      1.0  0.33145  0.36141  0.18904  1.0000
  O   O180      1.0  0.38094  0.30717  0.22938  1.0000
  O   O181      1.0  0.25130  0.30396  0.21400  1.0000
  Ti  Ti91      1.0  0.37670  0.36842  0.25690  1.0000
  Ti  Ti92      1.0  0.25651  0.30774  0.25379  1.0000
  O   O182      1.0  0.30230  0.36875  0.25267  1.0000
  O   O183      1.0  0.45457  0.36059  0.25442  1.0000
  O   O184      1.0  0.00599  0.30003  0.29350  1.0000
  O   O185      1.0  0.37820  0.30277  0.27835  1.0000
  Ti  Ti93      1.0  0.00531  0.36116  0.32110  1.0000
  Ti  Ti94      1.0  0.37882  0.29943  0.31769  1.0000
  O   O186      1.0  0.42718  0.36351  0.31934  1.0000
  O   O187      1.0  0.33103  0.36156  0.31936  1.0000
  O   O188      1.0  0.37966  0.29603  0.35743  1.0000
  O   O189      1.0  0.25398  0.29803  0.34271  1.0000
  Ti  Ti95      1.0  0.37250  0.36368  0.38262  1.0000
  Ti  Ti96      1.0  0.49808  0.29597  0.38550  1.0000
  O   O190      1.0  0.30379  0.36349  0.38110  1.0000
  O   O191      1.0  0.45393  0.35970  0.38298  1.0000
  O   O192      1.0  0.25406  0.30434  0.42147  1.0000
  O   O193      1.0  0.37157  0.29794  0.40796  1.0000
  Ti  Ti97      1.0  0.00273  0.36626  0.45071  1.0000
  Ti  Ti98      1.0  0.37922  0.30094  0.44380  1.0000
  O   O194      1.0  0.42820  0.36183  0.45106  1.0000
  O   O195      1.0  0.33043  0.36698  0.45058  1.0000
  O   O196      1.0  0.00399  0.29982  0.47242  1.0000
  O   O197      1.0  0.00616  0.42776  0.03456  1.0000
  Ti  Ti99      1.0  0.00823  0.49165  0.05513  1.0000
  Ti  Ti100     1.0  0.37948  0.43043  0.06165  1.0000
  O   O198      1.0  0.42868  0.49491  0.06078  1.0000
  O   O199      1.0  0.33140  0.49370  0.05792  1.0000
  O   O200      1.0  0.37482  0.43030  0.09708  1.0000
  O   O201      1.0  0.25718  0.42398  0.08513  1.0000
  Ti  Ti101     1.0  0.37544  0.49050  0.12722  1.0000
  Ti  Ti102     1.0  0.24797  0.42651  0.11978  1.0000
  O   O202      1.0  0.30001  0.48694  0.12589  1.0000
  O   O203      1.0  0.45650  0.49286  0.12372  1.0000
  O   O204      1.0  0.00576  0.43156  0.16234  1.0000
  O   O205      1.0  0.37634  0.42806  0.14950  1.0000
  Ti  Ti103     1.0  0.00046  0.49036  0.18690  1.0000
  Ti  Ti104     1.0  0.38231  0.42510  0.19308  1.0000
  O   O206      1.0  0.42743  0.49331  0.19100  1.0000
  O   O207      1.0  0.33030  0.49132  0.18976  1.0000
  O   O208      1.0  0.37373  0.42863  0.22869  1.0000
  O   O209      1.0  0.25169  0.42642  0.21383  1.0000
  Ti  Ti105     1.0  0.37870  0.49172  0.25435  1.0000
  Ti  Ti106     1.0  0.25010  0.43111  0.25139  1.0000
  O   O210      1.0  0.30247  0.49023  0.25155  1.0000
  O   O211      1.0  0.45417  0.48734  0.25307  1.0000
  O   O212      1.0  0.00562  0.41972  0.29314  1.0000
  O   O213      1.0  0.37807  0.42903  0.27941  1.0000
  Ti  Ti107     1.0  0.00779  0.47886  0.31503  1.0000
  Ti  Ti108     1.0  0.38449  0.42421  0.32047  1.0000
  O   O214      1.0  0.42677  0.48389  0.31790  1.0000
  O   O215      1.0  0.33176  0.48684  0.31804  1.0000
  O   O216      1.0  0.38072  0.42391  0.35739  1.0000
  O   O217      1.0  0.25359  0.42581  0.33976  1.0000
  Ti  Ti109     1.0  0.37999  0.48422  0.38241  1.0000
  Ti  Ti110     1.0  0.49691  0.42241  0.38685  1.0000
  O   O218      1.0  0.30063  0.48246  0.38414  1.0000
  O   O219      1.0  0.45382  0.48933  0.38335  1.0000
  O   O220      1.0  0.25091  0.42492  0.42110  1.0000
  O   O221      1.0  0.37404  0.42186  0.40773  1.0000
  Ti  Ti111     1.0  0.00494  0.49532  0.44997  1.0000
  Ti  Ti112     1.0  0.37758  0.42422  0.45423  1.0000
  O   O222      1.0  0.42847  0.48933  0.44913  1.0000
  O   O223      1.0  0.33139  0.48737  0.44523  1.0000
  O   O224      1.0  0.00881  0.43029  0.47253  1.0000
  O   O225      1.0  0.13028  0.05515  0.02081  1.0000
  H   H1        1.0  0.16027  0.03394  0.01310  1.0000
  H   H2        1.0  0.09826  0.04839  0.00893  1.0000
  O   O226      1.0  0.13353  0.04257  0.48742  1.0000
  H   H3        1.0  0.14002  0.00248  0.49084  1.0000
  H   H4        1.0  0.16211  0.06775  0.49845  1.0000
  O   O227      1.0  0.12818  0.17180  0.01934  1.0000
  H   H5        1.0  0.16366  0.17933  0.01474  1.0000
  H   H6        1.0  0.13491  0.12902  0.01708  1.0000
  O   O228      1.0  0.12220  0.17733  0.49103  1.0000
  H   H7        1.0  0.15421  0.16972  0.50020  1.0000
  H   H8        1.0  0.09625  0.15734  0.50150  1.0000
  O   O229      1.0  0.15016  0.31273  0.01814  1.0000
  H   H9        1.0  0.18694  0.30767  0.02034  1.0000
  H   H10       1.0  0.13330  0.28637  0.00579  1.0000
  O   O230      1.0  0.14052  0.29715  0.48633  1.0000
  H   H11       1.0  0.12978  0.25722  0.49165  1.0000
  H   H12       1.0  0.17886  0.29579  0.48877  1.0000
  O   O231      1.0  0.12983  0.42272  0.02004  1.0000
  H   H13       1.0  0.09420  0.43155  0.01471  1.0000
  H   H14       1.0  0.13767  0.38111  0.01507  1.0000
  O   O232      1.0  0.11269  0.43544  0.48722  1.0000
  H   H15       1.0  0.12981  0.40623  0.49984  1.0000
  H   H16       1.0  0.07775  0.42399  0.48920  1.0000
  O   O233      1.0  0.38610  0.05176  0.01881  1.0000
  H   H17       1.0  0.41391  0.06861  0.00780  1.0000
  H   H18       1.0  0.35377  0.07196  0.01321  1.0000
  O   O234      1.0  0.36803  0.04401  0.48955  1.0000
  H   H19       1.0  0.33423  0.06215  0.49406  1.0000
  H   H20       1.0  0.36655  0.00469  0.49590  1.0000
  O   O235      1.0  0.37661  0.18511  0.01858  1.0000
  H   H21       1.0  0.40852  0.16924  0.01261  1.0000
  H   H22       1.0  0.38241  0.22628  0.01581  1.0000
  O   O236      1.0  0.39184  0.17915  0.48892  1.0000
  H   H23       1.0  0.42406  0.16521  0.49532  1.0000
  H   H24       1.0  0.36493  0.15635  0.49671  1.0000
  O   O237      1.0  0.36598  0.29575  0.01708  1.0000
  H   H25       1.0  0.39510  0.32133  0.01100  1.0000
  H   H26       1.0  0.33425  0.31744  0.01138  1.0000
  O   O238      1.0  0.38869  0.29758  0.49324  1.0000
  H   H27       1.0  0.41445  0.32437  0.49995  1.0000
  H   H28       1.0  0.26937  0.37192  0.52425  1.0000
  O   O239      1.0  0.38745  0.44319  0.02035  1.0000
  H   H29       1.0  0.39164  0.48419  0.01635  1.0000
  H   H30       1.0  0.41935  0.42354  0.01500  1.0000
  O   O240      1.0  0.37732  0.43450  0.48983  1.0000
  H   H31       1.0  0.41046  0.41769  0.49843  1.0000
  H   H32       1.0  0.40777  0.26205  0.49174  1.0000
  H   H33       1.0  0.34568  0.41321  0.93963  1.0000
  H   H34       1.0  0.37015  0.35733  0.92636  1.0000
  O   O241      1.0  0.34148  0.38024  0.92670  1.0000
  H   H35       1.0  0.22907  0.42342  0.87993  1.0000
  H   H36       1.0  0.21216  0.39386  0.85455  1.0000
  O   O242      1.0  0.20265  0.39750  0.87325  1.0000
  H   H37       1.0  0.30943  0.10601  0.59746  1.0000
  H   H38       1.0  0.27328  0.11575  0.62216  1.0000
  O   O243      1.0  0.27426  0.10736  0.60339  1.0000
  H   H39       1.0  0.08662  0.28525  0.57821  1.0000
  H   H40       1.0  0.09291  0.30442  0.60810  1.0000
  O   O244      1.0  0.07013  0.28127  0.59593  1.0000
  H   H41       1.0  0.20175  0.18042  0.83307  1.0000
  H   H42       1.0  0.22528  0.23662  0.84310  1.0000
  O   O245      1.0  0.20468  0.22077  0.82864  1.0000
  H   H43       1.0  0.10300  0.34364  0.65461  1.0000
  H   H44       1.0  0.10107  0.38111  0.62863  1.0000
  O   O246      1.0  0.10018  0.34176  0.63486  1.0000
  H   H45       1.0  0.49292  0.17631  0.82350  1.0000
  H   H46       1.0  0.45245  0.12792  0.82044  1.0000
  O   O247      1.0  0.45583  0.16806  0.82432  1.0000
  H   H47       1.0  0.23526  0.02337  0.79904  1.0000
  H   H48       1.0  0.17238  0.03555  0.79989  1.0000
  O   O248      1.0  0.20352  0.02738  0.81071  1.0000
  H   H49       1.0  0.25886  0.03005  0.56903  1.0000
  H   H50       1.0  0.24001  0.09135  0.56893  1.0000
  O   O249      1.0  0.23113  0.05498  0.56168  1.0000
  H   H51       1.0  0.49999  0.42744  0.99372  1.0000
  H   H52       1.0  0.03097  0.40328  0.96851  1.0000
  O   O250      1.0  0.01666  0.43799  0.97744  1.0000
  H   H53       1.0  0.22400  0.28550  0.97715  1.0000
  H   H54       1.0  0.24986  0.31523  0.95213  1.0000
  O   O251      1.0  0.23363  0.32410  0.96961  1.0000
  H   H55       1.0  0.24020  0.00714  0.93542  1.0000
  H   H56       1.0  0.20172  0.45931  0.92733  1.0000
  O   O252      1.0  0.21377  0.49695  0.92240  1.0000
  H   H57       1.0  0.40857  0.04260  0.62862  1.0000
  H   H58       1.0  0.35041  0.02596  0.63700  1.0000
  O   O253      1.0  0.37783  0.05596  0.63634  1.0000
  H   H59       1.0  0.26697  0.44447  0.58617  1.0000
  H   H60       1.0  0.25304  0.42804  0.61273  1.0000
  O   O254      1.0  0.24879  0.41514  0.59542  1.0000
  H   H61       1.0  0.42454  0.46782  0.84951  1.0000
  H   H62       1.0  0.42933  0.42724  0.87336  1.0000
  O   O255      1.0  0.43707  0.46705  0.86885  1.0000
  H   H63       1.0  0.07874  0.22837  0.82810  1.0000
  H   H64       1.0  0.07804  0.17211  0.84099  1.0000
  O   O256      1.0  0.06866  0.19031  0.82404  1.0000
  H   H65       1.0  0.29972  0.44795  0.54739  1.0000
  H   H66       1.0  0.35264  0.44914  0.56051  1.0000
  O   O257      1.0  0.32213  0.47175  0.55792  1.0000
  H   H67       1.0  0.15190  0.17406  0.63610  1.0000
  H   H68       1.0  0.17567  0.11476  0.64489  1.0000
  O   O258      1.0  0.17196  0.15554  0.65098  1.0000
  H   H69       1.0  0.36420  0.42677  0.69052  1.0000
  H   H70       1.0  0.42407  0.44566  0.69310  1.0000
  O   O259      1.0  0.38964  0.45273  0.69905  1.0000
  H   H71       1.0  0.37657  0.35259  0.62473  1.0000
  H   H72       1.0  0.31428  0.34984  0.62816  1.0000
  O   O260      1.0  0.34352  0.32785  0.62338  1.0000
  H   H73       1.0  0.02081  0.28392  0.50731  1.0000
  H   H74       1.0  0.48803  0.28822  0.53458  1.0000
  O   O261      1.0  0.02054  0.27774  0.52657  1.0000
  H   H75       1.0  0.33363  0.10406  0.92329  1.0000
  H   H76       1.0  0.39119  0.09177  0.92585  1.0000
  O   O262      1.0  0.36143  0.09680  0.93713  1.0000
  H   H77       1.0  0.24953  0.01959  0.97737  1.0000
  H   H78       1.0  0.28984  0.06824  0.97311  1.0000
  O   O263      1.0  0.27601  0.03369  0.96434  1.0000
  H   H79       1.0  0.28365  0.11715  0.00847  1.0000
  H   H80       1.0  0.32666  0.15401  0.99590  1.0000
  O   O264      1.0  0.30971  0.11941  0.99437  1.0000
  H   H81       1.0  0.02986  0.39347  0.69504  1.0000
  H   H82       1.0  0.01160  0.43837  0.71568  1.0000
  O   O265      1.0  0.01054  0.43027  0.69619  1.0000
  H   H83       1.0  0.08694  0.47048  0.73951  1.0000
  H   H84       1.0  0.14410  0.44871  0.73671  1.0000
  O   O266      1.0  0.12349  0.48229  0.73943  1.0000
  H   H85       1.0  0.22101  0.07147  0.49548  1.0000
  H   H86       1.0  0.21920  0.07347  0.52726  1.0000
  O   O267      1.0  0.20256  0.09067  0.51182  1.0000
  H   H87       1.0  0.27454  0.40714  0.71417  1.0000
  H   H88       1.0  0.31736  0.37441  0.73422  1.0000
  O   O268      1.0  0.27945  0.38348  0.73117  1.0000
  H   H89       1.0  0.07544  0.06495  0.58990  1.0000
  H   H90       1.0  0.05241  0.10367  0.60873  1.0000
  O   O269      1.0  0.04201  0.07349  0.59745  1.0000
  H   H91       1.0  0.42087  0.05790  0.51089  1.0000
  H   H92       1.0  0.47964  0.06202  0.50564  1.0000
  O   O270      1.0  0.45435  0.06875  0.52016  1.0000
  H   H93       1.0  0.25787  0.16869  0.49024  1.0000
  H   H94       1.0  0.33448  0.30352  0.51372  1.0000
  O   O271      1.0  0.30112  0.30837  0.52339  1.0000
  H   H95       1.0  0.48146  0.22600  0.96553  1.0000
  H   H96       1.0  0.00057  0.16714  0.97643  1.0000
  O   O272      1.0  0.01081  0.20211  0.96783  1.0000
  H   H97       1.0  0.48575  0.24106  0.74744  1.0000
  H   H98       1.0  0.44949  0.25056  0.72417  1.0000
  O   O273      1.0  0.45234  0.22774  0.74042  1.0000
  H   H99       1.0  0.17595  0.18433  0.68684  1.0000
  H   H100      1.0  0.21158  0.22673  0.70141  1.0000
  O   O274      1.0  0.18204  0.19734  0.70523  1.0000
  H   H101      1.0  0.19264  0.16044  0.73334  1.0000
  H   H102      1.0  0.22438  0.13028  0.75662  1.0000
  O   O275      1.0  0.19253  0.15103  0.75166  1.0000
  H   H103      1.0  0.11633  0.19735  0.88536  1.0000
  H   H104      1.0  0.13103  0.21445  0.91325  1.0000
  O   O276      1.0  0.13049  0.22909  0.89530  1.0000
  H   H105      1.0  0.26999  0.44515  0.83289  1.0000
  H   H106      1.0  0.27831  0.48567  0.85561  1.0000
  O   O277      1.0  0.29488  0.47517  0.83966  1.0000
  H   H107      1.0  0.17307  0.33652  0.59379  1.0000
  H   H108      1.0  0.18302  0.39857  0.58775  1.0000
  O   O278      1.0  0.15971  0.36716  0.58262  1.0000
  H   H109      1.0  0.20575  0.20834  0.58116  1.0000
  H   H110      1.0  0.15998  0.23012  0.56586  1.0000
  O   O279      1.0  0.18192  0.19754  0.56758  1.0000
  H   H111      1.0  0.19224  0.05771  0.61159  1.0000
  H   H112      1.0  0.15691  0.01994  0.62655  1.0000
  O   O280      1.0  0.18230  0.04835  0.62909  1.0000
  H   H113      1.0  0.48700  0.14019  0.69382  1.0000
  H   H114      1.0  0.02980  0.19446  0.69720  1.0000
  O   O281      1.0  0.01813  0.16101  0.68506  1.0000
  H   H115      1.0  0.12953  0.38235  0.87033  1.0000
  H   H116      1.0  0.07415  0.40711  0.86244  1.0000
  O   O282      1.0  0.09318  0.37281  0.86770  1.0000
  H   H117      1.0  0.05631  0.32389  0.96141  1.0000
  H   H118      1.0  0.06091  0.33123  0.93139  1.0000
  O   O283      1.0  0.06786  0.35427  0.94814  1.0000
  H   H119      1.0  0.30566  0.30526  0.54297  1.0000
  H   H120      1.0  0.27164  0.42482  0.50833  1.0000
  O   O284      1.0  0.25956  0.41221  0.52563  1.0000
  H   H121      1.0  0.32774  0.30523  0.59184  1.0000
  H   H122      1.0  0.35748  0.26167  0.57549  1.0000
  O   O285      1.0  0.32792  0.28682  0.57530  1.0000
  H   H123      1.0  0.40552  0.26353  0.90194  1.0000
  H   H124      1.0  0.45098  0.30531  0.89963  1.0000
  O   O286      1.0  0.42707  0.28744  0.91149  1.0000
  H   H125      1.0  0.10323  0.17100  0.79494  1.0000
  H   H126      1.0  0.13765  0.15879  0.76875  1.0000
  O   O287      1.0  0.10232  0.16285  0.77631  1.0000
  H   H127      1.0  0.10927  0.12065  0.66330  1.0000
  H   H128      1.0  0.06227  0.12033  0.68208  1.0000
  O   O288      1.0  0.08684  0.09379  0.67302  1.0000
  H   H129      1.0  0.04949  0.01639  0.80199  1.0000
  H   H130      1.0  0.48584  0.02086  0.80754  1.0000
  O   O289      1.0  0.01868  0.00229  0.81166  1.0000
  H   H131      1.0  0.09954  0.45663  0.60819  1.0000
  H   H132      1.0  0.08577  0.47079  0.63727  1.0000
  O   O290      1.0  0.11514  0.45722  0.62517  1.0000
  H   H133      1.0  0.38033  0.42564  0.75824  1.0000
  H   H134      1.0  0.39971  0.45018  0.78479  1.0000
  O   O291      1.0  0.38133  0.46025  0.76878  1.0000
  H   H135      1.0  0.35243  0.27676  0.65168  1.0000
  H   H136      1.0  0.36592  0.21586  0.65879  1.0000
  O   O292      1.0  0.35423  0.25117  0.66657  1.0000
  H   H137      1.0  0.30314  0.07634  0.82196  1.0000
  H   H138      1.0  0.31323  0.10359  0.79472  1.0000
  O   O293      1.0  0.32887  0.09673  0.81259  1.0000
  H   H139      1.0  0.42990  0.13703  0.72209  1.0000
  H   H140      1.0  0.40507  0.09921  0.70079  1.0000
  O   O294      1.0  0.43970  0.11088  0.70873  1.0000
  H   H141      1.0  0.12482  0.23451  0.71316  1.0000
  H   H142      1.0  0.07478  0.24999  0.72954  1.0000
  O   O295      1.0  0.08804  0.25056  0.71131  1.0000
  H   H143      1.0  0.20645  0.42446  0.80827  1.0000
  H   H144      1.0  0.23853  0.36740  0.80995  1.0000
  O   O296      1.0  0.21712  0.39389  0.82017  1.0000
  H   H145      1.0  0.05068  0.01244  0.98179  1.0000
  H   H146      1.0  0.08056  0.04118  0.95972  1.0000
  O   O297      1.0  0.07665  0.04197  0.97959  1.0000
  H   H147      1.0  0.18333  0.46672  0.98488  1.0000
  H   H148      1.0  0.22158  0.45987  0.00822  1.0000
  O   O298      1.0  0.20673  0.48852  0.99619  1.0000
  H   H149      1.0  0.18184  0.26145  0.88279  1.0000
  H   H150      1.0  0.20879  0.32281  0.87980  1.0000
  O   O299      1.0  0.21404  0.28140  0.87744  1.0000
  H   H151      1.0  0.48533  0.08648  0.99756  1.0000
  H   H152      1.0  0.44711  0.07878  0.97580  1.0000
  O   O300      1.0  0.45224  0.10151  0.99071  1.0000
  H   H153      1.0  0.39835  0.35025  0.72484  1.0000
  H   H154      1.0  0.37422  0.31484  0.74817  1.0000
  O   O301      1.0  0.37359  0.35085  0.73912  1.0000
  H   H155      1.0  0.48069  0.39044  0.50092  1.0000
  H   H156      1.0  0.45179  0.39004  0.53091  1.0000
  O   O302      1.0  0.45389  0.37194  0.51284  1.0000
  H   H157      1.0  0.31938  0.23391  0.94838  1.0000
  H   H158      1.0  0.34606  0.17520  0.95210  1.0000
  O   O303      1.0  0.33650  0.21088  0.96203  1.0000
  H   H159      1.0  0.13721  0.12632  0.86090  1.0000
  H   H160      1.0  0.08188  0.10267  0.87238  1.0000
  O   O304      1.0  0.10089  0.13783  0.86736  1.0000
  H   H161      1.0  0.46049  0.33455  0.60388  1.0000
  H   H162      1.0  0.01032  0.30645  0.59295  1.0000
  O   O305      1.0  0.47512  0.31969  0.58772  1.0000
  H   H163      1.0  0.39255  0.07118  0.80943  1.0000
  H   H164      1.0  0.43204  0.06675  0.78670  1.0000
  O   O306      1.0  0.42812  0.07197  0.80586  1.0000
  H   H165      1.0  0.39783  0.22867  0.76134  1.0000
  H   H166      1.0  0.35440  0.21947  0.78555  1.0000
  O   O307      1.0  0.36075  0.23464  0.76797  1.0000
  H   H167      1.0  0.43467  0.33139  0.97979  1.0000
  H   H168      1.0  0.46706  0.33392  0.00408  1.0000
  O   O308      1.0  0.44024  0.35625  0.99567  1.0000
  H   H169      1.0  0.04647  0.07448  0.52980  1.0000
  H   H170      1.0  0.07468  0.03542  0.50905  1.0000
  O   O309      1.0  0.05421  0.03684  0.52455  1.0000
  H   H171      1.0  0.11465  0.37259  0.69480  1.0000
  H   H172      1.0  0.08662  0.31211  0.69936  1.0000
  O   O310      1.0  0.08406  0.34781  0.68834  1.0000
  H   H173      1.0  0.04871  0.01546  0.87740  1.0000
  H   H174      1.0  0.01829  0.05632  0.89500  1.0000
  O   O311      1.0  0.05432  0.04875  0.88990  1.0000
  H   H175      1.0  0.36886  0.12394  0.63294  1.0000
  H   H176      1.0  0.37646  0.18349  0.61765  1.0000
  O   O312      1.0  0.37873  0.16451  0.63434  1.0000
  H   H177      1.0  0.21567  0.19757  0.97167  1.0000
  H   H178      1.0  0.23462  0.21191  0.99887  1.0000
  O   O313      1.0  0.20861  0.22116  0.98707  1.0000
  H   H179      1.0  0.07273  0.33850  0.89173  1.0000
  H   H180      1.0  0.08419  0.28128  0.90205  1.0000
  O   O314      1.0  0.05650  0.30755  0.90231  1.0000
  H   H181      1.0  0.41444  0.01219  0.75289  1.0000
  H   H182      1.0  0.43714  0.06416  0.73682  1.0000
  O   O315      1.0  0.44153  0.03957  0.75216  1.0000
  H   H183      1.0  0.21118  0.10272  0.94407  1.0000
  H   H184      1.0  0.16802  0.14075  0.94003  1.0000
  O   O316      1.0  0.20451  0.14163  0.94394  1.0000
  H   H185      1.0  0.31196  0.35288  0.78115  1.0000
  H   H186      1.0  0.29434  0.29050  0.78398  1.0000
  O   O317      1.0  0.29963  0.32535  0.79337  1.0000
  H   H187      1.0  0.46752  0.02471  0.54894  1.0000
  H   H188      1.0  0.01144  0.48677  0.56169  1.0000
  O   O318      1.0  0.47404  0.49754  0.56231  1.0000
  H   H189      1.0  0.23891  0.21803  0.79653  1.0000
  H   H190      1.0  0.23233  0.20605  0.76761  1.0000
  O   O319      1.0  0.25498  0.22551  0.77980  1.0000
  H   H191      1.0  0.13802  0.18312  0.59565  1.0000
  H   H192      1.0  0.09007  0.20802  0.60550  1.0000
  O   O320      1.0  0.11505  0.17689  0.60976  1.0000
  H   H193      1.0  0.30803  0.47175  0.77115  1.0000
  H   H194      1.0  0.25612  0.46157  0.75548  1.0000
  O   O321      1.0  0.27237  0.48400  0.76952  1.0000
  H   H195      1.0  0.11314  0.32493  0.84652  1.0000
  H   H196      1.0  0.15279  0.28003  0.83507  1.0000
  O   O322      1.0  0.11828  0.29707  0.83220  1.0000
  H   H197      1.0  0.01687  0.16066  0.50384  1.0000
  H   H198      1.0  0.02794  0.19622  0.52936  1.0000
  O   O323      1.0  0.03981  0.16204  0.51977  1.0000
  H   H199      1.0  0.41929  0.49102  0.95884  1.0000
  H   H200      1.0  0.47555  0.49464  0.96226  1.0000
  O   O324      1.0  0.44754  0.01905  0.95499  1.0000
  H   H201      1.0  0.43317  0.19080  0.58179  1.0000
  H   H202      1.0  0.44133  0.25390  0.58809  1.0000
  O   O325      1.0  0.41397  0.22697  0.58403  1.0000
  H   H203      1.0  0.12419  0.31452  0.54131  1.0000
  H   H204      1.0  0.07759  0.27476  0.54198  1.0000
  O   O326      1.0  0.11061  0.28072  0.55111  1.0000
  H   H205      1.0  0.36988  0.06663  0.66986  1.0000
  H   H206      1.0  0.36898  0.03215  0.69666  1.0000
  O   O327      1.0  0.35729  0.06804  0.68883  1.0000
  H   H207      1.0  0.27375  0.06480  0.88653  1.0000
  H   H208      1.0  0.22875  0.02598  0.89317  1.0000
  O   O328      1.0  0.24807  0.04051  0.87773  1.0000
  H   H209      1.0  0.00136  0.19274  0.65272  1.0000
  H   H210      1.0  0.46063  0.20319  0.62827  1.0000
  O   O329      1.0  0.49129  0.21743  0.63738  1.0000
  H   H211      1.0  0.19100  0.38222  0.96279  1.0000
  H   H212      1.0  0.13221  0.38915  0.95667  1.0000
  O   O330      1.0  0.16543  0.41151  0.95622  1.0000
  H   H213      1.0  0.27554  0.25258  0.59486  1.0000
  H   H214      1.0  0.26185  0.19723  0.61127  1.0000
  O   O331      1.0  0.24892  0.23327  0.60386  1.0000
  H   H215      1.0  0.06907  0.28414  0.76908  1.0000
  H   H216      1.0  0.07289  0.21892  0.76835  1.0000
  O   O332      1.0  0.05158  0.25069  0.76269  1.0000
  H   H217      1.0  0.47639  0.01666  0.60241  1.0000
  H   H218      1.0  0.48608  0.01786  0.63341  1.0000
  O   O333      1.0  0.46080  0.00753  0.61955  1.0000
  H   H219      1.0  0.21997  0.06176  0.70509  1.0000
  H   H220      1.0  0.27644  0.07831  0.70418  1.0000
  O   O334      1.0  0.25390  0.04841  0.70985  1.0000
  H   H221      1.0  0.29605  0.11582  0.75020  1.0000
  H   H222      1.0  0.27668  0.05485  0.76168  1.0000
  O   O335      1.0  0.28008  0.09735  0.76545  1.0000
  H   H223      1.0  0.04087  0.29544  0.00872  1.0000
  H   H224      1.0  0.04450  0.24434  0.98885  1.0000
  O   O336      1.0  0.06168  0.27958  0.99319  1.0000
  H   H225      1.0  0.38177  0.18882  0.87887  1.0000
  H   H226      1.0  0.34744  0.22840  0.86117  1.0000
  O   O337      1.0  0.35248  0.21760  0.87983  1.0000
  H   H227      1.0  0.03078  0.48320  0.84217  1.0000
  H   H228      1.0  0.49832  0.46839  0.86598  1.0000
  O   O338      1.0  0.03595  0.46840  0.86055  1.0000
  H   H229      1.0  0.33980  0.16799  0.82018  1.0000
  H   H230      1.0  0.39003  0.20456  0.82031  1.0000
  O   O339      1.0  0.35323  0.20851  0.82069  1.0000
  H   H231      1.0  0.41566  0.31973  0.81159  1.0000
  H   H232      1.0  0.35170  0.32416  0.80895  1.0000
  O   O340      1.0  0.38530  0.34114  0.81655  1.0000
  H   H233      1.0  0.37217  0.35361  0.86424  1.0000
  H   H234      1.0  0.36035  0.38530  0.89059  1.0000
  O   O341      1.0  0.38716  0.36994  0.87974  1.0000
  H   H235      1.0  0.09855  0.04154  0.91684  1.0000
  H   H236      1.0  0.15174  0.03617  0.93033  1.0000
  O   O342      1.0  0.11606  0.05029  0.93258  1.0000
  H   H237      1.0  0.21509  0.08823  0.85624  1.0000
  H   H238      1.0  0.19296  0.08414  0.82857  1.0000
  O   O343      1.0  0.19074  0.11144  0.84364  1.0000
  H   H239      1.0  0.08935  0.12941  0.93172  1.0000
  H   H240      1.0  0.06678  0.18179  0.94541  1.0000
  O   O344      1.0  0.09831  0.16757  0.93706  1.0000
  H   H241      1.0  0.39585  0.09688  0.57322  1.0000
  H   H242      1.0  0.36367  0.04649  0.56528  1.0000
  O   O345      1.0  0.35892  0.08590  0.56920  1.0000
  H   H243      1.0  0.02718  0.34303  0.64395  1.0000
  H   H244      1.0  0.49308  0.29325  0.64785  1.0000
  O   O346      1.0  0.49460  0.33372  0.65284  1.0000
  H   H245      1.0  0.00338  0.36775  0.79797  1.0000
  H   H246      1.0  0.01340  0.43269  0.79737  1.0000
  O   O347      1.0  0.01678  0.39789  0.78639  1.0000
  H   H247      1.0  0.27741  0.30385  0.70822  1.0000
  H   H248      1.0  0.29896  0.26062  0.68956  1.0000
  O   O348      1.0  0.27100  0.26487  0.70247  1.0000
  H   H249      1.0  0.35741  0.46302  0.83059  1.0000
  H   H250      1.0  0.39139  0.41015  0.82102  1.0000
  O   O349      1.0  0.39205  0.45264  0.82237  1.0000
  H   H251      1.0  0.33686  0.12028  0.54148  1.0000
  H   H252      1.0  0.29100  0.15823  0.52865  1.0000
  O   O350      1.0  0.31968  0.13205  0.52484  1.0000
  H   H253      1.0  0.25986  0.01922  0.63244  1.0000
  H   H254      1.0  0.27945  0.47740  0.65387  1.0000
  O   O351      1.0  0.28635  0.48907  0.63590  1.0000
  H   H255      1.0  0.11804  0.33513  0.79755  1.0000
  H   H256      1.0  0.07874  0.37378  0.78329  1.0000
  O   O352      1.0  0.10764  0.34834  0.78091  1.0000
  H   H257      1.0  0.02038  0.42673  0.75930  1.0000
  H   H258      1.0  0.49729  0.48440  0.75124  1.0000
  O   O353      1.0  0.02158  0.45725  0.74532  1.0000
  H   H259      1.0  0.46308  0.11485  0.54906  1.0000
  H   H260      1.0  0.49179  0.10367  0.57483  1.0000
  O   O354      1.0  0.46011  0.11994  0.56778  1.0000
  H   H261      1.0  0.12336  0.05533  0.68836  1.0000
  H   H262      1.0  0.14235  0.01708  0.71079  1.0000
  O   O355      1.0  0.15169  0.02902  0.69335  1.0000
  H   H263      1.0  0.16135  0.42312  0.65764  1.0000
  H   H264      1.0  0.15721  0.46479  0.68089  1.0000
  O   O356      1.0  0.17491  0.42904  0.67475  1.0000
  H   H265      1.0  0.15757  0.37353  0.75230  1.0000
  H   H266      1.0  0.21078  0.36981  0.73622  1.0000
  O   O357      1.0  0.17530  0.38047  0.73534  1.0000
  H   H267      1.0  0.33364  0.19435  0.74760  1.0000
  H   H268      1.0  0.29695  0.20096  0.72369  1.0000
  O   O358      1.0  0.32067  0.17346  0.73194  1.0000
  H   H269      1.0  0.03294  0.37741  0.57361  1.0000
  H   H270      1.0  0.07893  0.39538  0.55416  1.0000
  O   O359      1.0  0.04647  0.40656  0.56206  1.0000
  H   H271      1.0  0.25114  0.15395  0.91330  1.0000
  H   H272      1.0  0.30324  0.16783  0.89706  1.0000
  O   O360      1.0  0.27748  0.14050  0.90181  1.0000
  H   H273      1.0  0.43968  0.02450  0.89144  1.0000
  H   H274      1.0  0.44893  0.03002  0.92269  1.0000
  O   O361      1.0  0.44776  0.05148  0.90532  1.0000
  H   H275      1.0  0.40268  0.28774  0.68509  1.0000
  H   H276      1.0  0.45547  0.32838  0.68382  1.0000
  O   O362      1.0  0.43151  0.30962  0.69495  1.0000
  H   H277      1.0  0.41285  0.38158  0.57121  1.0000
  H   H278      1.0  0.44229  0.43871  0.56391  1.0000
  O   O363      1.0  0.41448  0.41147  0.55831  1.0000
  H   H279      1.0  0.06030  0.02873  0.66414  1.0000
  H   H280      1.0  0.03095  0.47259  0.67145  1.0000
  O   O364      1.0  0.04674  0.49503  0.65637  1.0000
  H   H281      1.0  0.32696  0.49467  0.96278  1.0000
  H   H282      1.0  0.34092  0.43254  0.97581  1.0000
  O   O365      1.0  0.35347  0.46071  0.96277  1.0000
  H   H283      1.0  0.49467  0.29168  0.82999  1.0000
  H   H284      1.0  0.49352  0.27070  0.80001  1.0000
  O   O366      1.0  0.48789  0.30118  0.81231  1.0000
  H   H285      1.0  0.23412  0.44089  0.68534  1.0000
  H   H286      1.0  0.26866  0.48339  0.69844  1.0000
  O   O367      1.0  0.27091  0.44744  0.68898  1.0000
  H   H287      1.0  0.24669  0.16072  0.65607  1.0000
  H   H288      1.0  0.30603  0.17807  0.65829  1.0000
  O   O368      1.0  0.28129  0.14722  0.65871  1.0000
  O   O369      1.0  0.11028  0.04251  0.78519  1.0000
  H   H289      1.0  0.10345  0.08352  0.78120  1.0000
  H   H290      1.0  0.11497  0.02757  0.76783  1.0000
  O   O370      1.0  0.49932  0.26953  0.86613  1.0000
  H   H291      1.0  0.02377  0.27878  0.88005  1.0000
  H   H292      1.0  0.48246  0.23321  0.86674  1.0000
  O   O371      1.0  0.42868  0.14218  0.87775  1.0000
  H   H293      1.0  0.43208  0.10388  0.88599  1.0000
  H   H294      1.0  0.44954  0.14251  0.86065  1.0000
  O   O372      1.0  0.42970  0.38548  0.62455  1.0000
  H   H295      1.0  0.45383  0.37079  0.63762  1.0000
  H   H296      1.0  0.43691  0.42473  0.61887  1.0000
  O   O373      1.0  0.42559  0.27994  0.96154  1.0000
  H   H297      1.0  0.39178  0.26238  0.96653  1.0000
  H   H298      1.0  0.43150  0.28839  0.94258  1.0000
  O   O374      1.0  0.24273  0.21073  0.52414  1.0000
  H   H299      1.0  0.21869  0.21008  0.53904  1.0000
  H   H300      1.0  0.25429  0.24806  0.52148  1.0000
  O   O375      1.0  0.28255  0.28665  0.92803  1.0000
  H   H301      1.0  0.26591  0.28345  0.91155  1.0000
  H   H302      1.0  0.30328  0.32061  0.92683  1.0000
  O   O376      1.0  0.15965  0.38087  0.53221  1.0000
  H   H303      1.0  0.16696  0.36691  0.55015  1.0000
  H   H304      1.0  0.18825  0.40810  0.53129  1.0000
  O   O377      1.0  0.30726  0.36995  0.99478  1.0000
  H   H305      1.0  0.29565  0.39459  0.00949  1.0000
  H   H306      1.0  0.27718  0.35335  0.98618  1.0000
  O   O378      1.0  0.11991  0.02790  0.57027  1.0000
  H   H307      1.0  0.15229  0.03929  0.56261  1.0000
  H   H308      1.0  0.10294  0.01885  0.55405  1.0000
  O   O379      1.0  0.25334  0.55487  0.03467  1.0000
  Ti  Ti113     1.0  0.25526  0.61982  0.06201  1.0000
  Ti  Ti114     1.0  0.13140  0.55475  0.06375  1.0000
  O   O380      1.0  0.17554  0.62019  0.06189  1.0000
  O   O381      1.0  0.08061  0.61680  0.06041  1.0000
  O   O382      1.0  0.12858  0.55272  0.10031  1.0000
  O   O383      1.0  0.00628  0.55590  0.08559  1.0000
  Ti  Ti115     1.0  0.12430  0.62122  0.12596  1.0000
  Ti  Ti116     1.0  0.00495  0.55792  0.12096  1.0000
  O   O384      1.0  0.05449  0.61505  0.12440  1.0000
  O   O385      1.0  0.20185  0.61704  0.12191  1.0000
  O   O386      1.0  0.25091  0.55294  0.16303  1.0000
  O   O387      1.0  0.13280  0.55816  0.15071  1.0000
  Ti  Ti117     1.0  0.25380  0.61645  0.19058  1.0000
  Ti  Ti118     1.0  0.13159  0.55140  0.19167  1.0000
  O   O388      1.0  0.17828  0.61370  0.19061  1.0000
  O   O389      1.0  0.08084  0.61523  0.18840  1.0000
  O   O390      1.0  0.12595  0.55027  0.22809  1.0000
  O   O391      1.0  0.00225  0.55475  0.21566  1.0000
  Ti  Ti119     1.0  0.12994  0.61510  0.25377  1.0000
  Ti  Ti120     1.0  0.00186  0.55079  0.25625  1.0000
  O   O392      1.0  0.05428  0.61216  0.25305  1.0000
  O   O393      1.0  0.20504  0.61657  0.25140  1.0000
  O   O394      1.0  0.25457  0.55144  0.29200  1.0000
  O   O395      1.0  0.13071  0.55101  0.27774  1.0000
  Ti  Ti121     1.0  0.25941  0.61519  0.31453  1.0000
  Ti  Ti122     1.0  0.13359  0.54512  0.31603  1.0000
  O   O396      1.0  0.17848  0.60630  0.31702  1.0000
  O   O397      1.0  0.07935  0.60536  0.31482  1.0000
  O   O398      1.0  0.12633  0.54936  0.35806  1.0000
  O   O399      1.0  0.00331  0.54368  0.34360  1.0000
  Ti  Ti123     1.0  0.12912  0.61351  0.38123  1.0000
  Ti  Ti124     1.0  0.25625  0.54818  0.37865  1.0000
  O   O400      1.0  0.05233  0.61065  0.38188  1.0000
  O   O401      1.0  0.20446  0.61127  0.37819  1.0000
  O   O402      1.0  0.00142  0.55458  0.42019  1.0000
  O   O403      1.0  0.13033  0.54990  0.40785  1.0000
  Ti  Ti125     1.0  0.25664  0.61490  0.44153  1.0000
  Ti  Ti126     1.0  0.13261  0.55085  0.44546  1.0000
  O   O404      1.0  0.18079  0.61915  0.44690  1.0000
  O   O405      1.0  0.08057  0.61315  0.44744  1.0000
  O   O406      1.0  0.25524  0.54913  0.47095  1.0000
  O   O407      1.0  0.25118  0.67454  0.03600  1.0000
  Ti  Ti127     1.0  0.25324  0.74151  0.05520  1.0000
  Ti  Ti128     1.0  0.12879  0.68061  0.06392  1.0000
  O   O408      1.0  0.17531  0.73816  0.06183  1.0000
  O   O409      1.0  0.08368  0.74251  0.05934  1.0000
  O   O410      1.0  0.12524  0.67985  0.09924  1.0000
  O   O411      1.0  0.00340  0.68059  0.08484  1.0000
  Ti  Ti129     1.0  0.13259  0.74222  0.12707  1.0000
  Ti  Ti130     1.0  0.00003  0.68494  0.12583  1.0000
  O   O412      1.0  0.05227  0.74169  0.12375  1.0000
  O   O413      1.0  0.20799  0.73603  0.12258  1.0000
  O   O414      1.0  0.25543  0.67599  0.16370  1.0000
  O   O415      1.0  0.12827  0.67810  0.14983  1.0000
  Ti  Ti131     1.0  0.25508  0.74308  0.18771  1.0000
  Ti  Ti132     1.0  0.12698  0.67907  0.19030  1.0000
  O   O416      1.0  0.17606  0.73659  0.19024  1.0000
  O   O417      1.0  0.08086  0.74025  0.18671  1.0000
  O   O418      1.0  0.12341  0.67354  0.22874  1.0000
  O   O419      1.0  0.00169  0.68469  0.21540  1.0000
  Ti  Ti133     1.0  0.12956  0.73843  0.25240  1.0000
  Ti  Ti134     1.0  0.00412  0.67457  0.25541  1.0000
  O   O420      1.0  0.05457  0.73771  0.25371  1.0000
  O   O421      1.0  0.20540  0.74438  0.25374  1.0000
  O   O422      1.0  0.25404  0.67726  0.29213  1.0000
  O   O423      1.0  0.12680  0.67756  0.27950  1.0000
  Ti  Ti135     1.0  0.25214  0.73791  0.32052  1.0000
  Ti  Ti136     1.0  0.12980  0.66864  0.31754  1.0000
  O   O424      1.0  0.17733  0.73360  0.31900  1.0000
  O   O425      1.0  0.08139  0.73779  0.31668  1.0000
  O   O426      1.0  0.12623  0.67485  0.35632  1.0000
  O   O427      1.0  0.00378  0.67559  0.34300  1.0000
  Ti  Ti137     1.0  0.13107  0.73863  0.38080  1.0000
  Ti  Ti138     1.0  0.25763  0.67353  0.38043  1.0000
  O   O428      1.0  0.05035  0.73634  0.38398  1.0000
  O   O429      1.0  0.20669  0.73173  0.38330  1.0000
  O   O430      1.0  0.00543  0.66926  0.42044  1.0000
  O   O431      1.0  0.12449  0.67734  0.40682  1.0000
  Ti  Ti139     1.0  0.25455  0.74697  0.45075  1.0000
  Ti  Ti140     1.0  0.12820  0.67271  0.44197  1.0000
  O   O432      1.0  0.17652  0.73350  0.44875  1.0000
  O   O433      1.0  0.08089  0.74117  0.44771  1.0000
  O   O434      1.0  0.25094  0.68106  0.47307  1.0000
  O   O435      1.0  0.24754  0.80226  0.03340  1.0000
  Ti  Ti141     1.0  0.25109  0.86751  0.05764  1.0000
  Ti  Ti142     1.0  0.12710  0.80670  0.06244  1.0000
  O   O436      1.0  0.17838  0.86595  0.06008  1.0000
  O   O437      1.0  0.08201  0.87071  0.06092  1.0000
  O   O438      1.0  0.12967  0.80075  0.09967  1.0000
  O   O439      1.0  0.00804  0.80399  0.08317  1.0000
  Ti  Ti143     1.0  0.12965  0.86946  0.12585  1.0000
  Ti  Ti144     1.0  0.00562  0.81030  0.11879  1.0000
  O   O440      1.0  0.05481  0.87004  0.12455  1.0000
  O   O441      1.0  0.20399  0.86044  0.12437  1.0000
  O   O442      1.0  0.25175  0.79733  0.16496  1.0000
  O   O443      1.0  0.13079  0.80832  0.14971  1.0000
  Ti  Ti145     1.0  0.25161  0.86732  0.18807  1.0000
  Ti  Ti146     1.0  0.13256  0.80254  0.18971  1.0000
  O   O444      1.0  0.17875  0.86712  0.18951  1.0000
  O   O445      1.0  0.08091  0.86773  0.18960  1.0000
  O   O446      1.0  0.12770  0.80038  0.22862  1.0000
  O   O447      1.0  0.00845  0.80646  0.21142  1.0000
  Ti  Ti147     1.0  0.13044  0.86524  0.25061  1.0000
  Ti  Ti148     1.0  0.01351  0.80037  0.25580  1.0000
  O   O448      1.0  0.05366  0.86394  0.25260  1.0000
  O   O449      1.0  0.20310  0.86576  0.25238  1.0000
  O   O450      1.0  0.25631  0.80320  0.29164  1.0000
  O   O451      1.0  0.12643  0.79906  0.27675  1.0000
  Ti  Ti149     1.0  0.25636  0.86384  0.31738  1.0000
  Ti  Ti150     1.0  0.13195  0.79704  0.31397  1.0000
  O   O452      1.0  0.17921  0.86306  0.31306  1.0000
  O   O453      1.0  0.08020  0.86098  0.31981  1.0000
  O   O454      1.0  0.12996  0.80079  0.35725  1.0000
  O   O455      1.0  0.00350  0.80008  0.34404  1.0000
  Ti  Ti151     1.0  0.12067  0.86561  0.38151  1.0000
  Ti  Ti152     1.0  0.24920  0.79876  0.38582  1.0000
  O   O456      1.0  0.05351  0.86511  0.38321  1.0000
  O   O457      1.0  0.21194  0.86317  0.37868  1.0000
  O   O458      1.0  0.00289  0.80184  0.42147  1.0000
  O   O459      1.0  0.13556  0.80374  0.40602  1.0000
  Ti  Ti153     1.0  0.25256  0.87157  0.44935  1.0000
  Ti  Ti154     1.0  0.13014  0.79851  0.44606  1.0000
  O   O460      1.0  0.17897  0.86361  0.44854  1.0000
  O   O461      1.0  0.08163  0.86477  0.44633  1.0000
  O   O462      1.0  0.24382  0.80598  0.47212  1.0000
  O   O463      1.0  0.25733  0.92841  0.03336  1.0000
  Ti  Ti155     1.0  0.25540  0.99817  0.05640  1.0000
  Ti  Ti156     1.0  0.13235  0.93132  0.06393  1.0000
  O   O464      1.0  0.18018  0.98937  0.05688  1.0000
  O   O465      1.0  0.08277  0.98991  0.05945  1.0000
  O   O466      1.0  0.13774  0.93131  0.09906  1.0000
  O   O467      1.0  0.00533  0.93066  0.08372  1.0000
  Ti  Ti157     1.0  0.12832  0.99659  0.12637  1.0000
  Ti  Ti158     1.0  0.00145  0.93208  0.12061  1.0000
  O   O468      1.0  0.05071  0.99515  0.12620  1.0000
  O   O469      1.0  0.20307  0.99482  0.12206  1.0000
  O   O470      1.0  0.25551  0.92703  0.16422  1.0000
  O   O471      1.0  0.12877  0.93019  0.14880  1.0000
  Ti  Ti159     1.0  0.25425  0.98918  0.18574  1.0000
  Ti  Ti160     1.0  0.12695  0.93175  0.18858  1.0000
  O   O472      1.0  0.17773  0.98874  0.18859  1.0000
  O   O473      1.0  0.08249  0.99260  0.18883  1.0000
  O   O474      1.0  0.12867  0.92773  0.22894  1.0000
  O   O475      1.0  0.00432  0.92782  0.21401  1.0000
  Ti  Ti161     1.0  0.12381  0.98867  0.25392  1.0000
  Ti  Ti162     1.0  0.49943  0.92162  0.24771  1.0000
  O   O476      1.0  0.05345  0.98509  0.25435  1.0000
  O   O477      1.0  0.20548  0.99256  0.25449  1.0000
  O   O478      1.0  0.25960  0.92141  0.28995  1.0000
  O   O479      1.0  0.12915  0.92447  0.27830  1.0000
  Ti  Ti163     1.0  0.25674  0.98341  0.31684  1.0000
  Ti  Ti164     1.0  0.12935  0.91910  0.31630  1.0000
  O   O480      1.0  0.18163  0.98828  0.31212  1.0000
  O   O481      1.0  0.08238  0.98473  0.31821  1.0000
  O   O482      1.0  0.13564  0.92705  0.35651  1.0000
  O   O483      1.0  0.00675  0.92081  0.34151  1.0000
  Ti  Ti165     1.0  0.12618  0.99070  0.37893  1.0000
  Ti  Ti166     1.0  0.24806  0.92827  0.38461  1.0000
  O   O484      1.0  0.05243  0.98487  0.38617  1.0000
  O   O485      1.0  0.20175  0.98780  0.38055  1.0000
  O   O486      1.0  0.00054  0.92223  0.42207  1.0000
  O   O487      1.0  0.13714  0.92851  0.40615  1.0000
  Ti  Ti167     1.0  0.26251  0.99368  0.44721  1.0000
  Ti  Ti168     1.0  0.13170  0.92852  0.44282  1.0000
  O   O488      1.0  0.17583  0.98706  0.44901  1.0000
  O   O489      1.0  0.08074  0.99018  0.44675  1.0000
  O   O490      1.0  0.25736  0.93064  0.47137  1.0000
  O   O491      1.0  0.01161  0.55482  0.03481  1.0000
  Ti  Ti169     1.0  0.00788  0.61885  0.05952  1.0000
  Ti  Ti170     1.0  0.38040  0.55454  0.06439  1.0000
  O   O492      1.0  0.42657  0.61761  0.06062  1.0000
  O   O493      1.0  0.33200  0.61579  0.05646  1.0000
  O   O494      1.0  0.38077  0.55208  0.10024  1.0000
  O   O495      1.0  0.25843  0.54952  0.08567  1.0000
  Ti  Ti171     1.0  0.37762  0.61372  0.12442  1.0000
  Ti  Ti172     1.0  0.25310  0.55431  0.12443  1.0000
  O   O496      1.0  0.30154  0.61279  0.12426  1.0000
  O   O497      1.0  0.45310  0.61860  0.12598  1.0000
  O   O498      1.0  0.00168  0.55397  0.16564  1.0000
  O   O499      1.0  0.37402  0.54908  0.15070  1.0000
  Ti  Ti173     1.0  0.00372  0.61026  0.19076  1.0000
  Ti  Ti174     1.0  0.37398  0.55455  0.19110  1.0000
  O   O500      1.0  0.42541  0.61435  0.18956  1.0000
  O   O501      1.0  0.32602  0.61765  0.18590  1.0000
  O   O502      1.0  0.37524  0.55321  0.22839  1.0000
  O   O503      1.0  0.25216  0.55119  0.21364  1.0000
  Ti  Ti175     1.0  0.37404  0.61685  0.25111  1.0000
  Ti  Ti176     1.0  0.25104  0.55656  0.25414  1.0000
  O   O504      1.0  0.30242  0.61878  0.25494  1.0000
  O   O505      1.0  0.45502  0.61306  0.25455  1.0000
  O   O506      1.0  0.49980  0.54558  0.29387  1.0000
  O   O507      1.0  0.38169  0.55284  0.27880  1.0000
  Ti  Ti177     1.0  0.00658  0.60679  0.32179  1.0000
  Ti  Ti178     1.0  0.38036  0.54687  0.31726  1.0000
  O   O508      1.0  0.42669  0.61219  0.31861  1.0000
  O   O509      1.0  0.32881  0.61167  0.31767  1.0000
  O   O510      1.0  0.37668  0.54678  0.35858  1.0000
  O   O511      1.0  0.25847  0.54579  0.34290  1.0000
  Ti  Ti179     1.0  0.37763  0.61141  0.38017  1.0000
  Ti  Ti180     1.0  0.00828  0.54528  0.38226  1.0000
  O   O512      1.0  0.30415  0.61168  0.37881  1.0000
  O   O513      1.0  0.45170  0.61265  0.38210  1.0000
  O   O514      1.0  0.25199  0.54854  0.41906  1.0000
  O   O515      1.0  0.37647  0.54844  0.40807  1.0000
  Ti  Ti181     1.0  0.00453  0.61463  0.44749  1.0000
  Ti  Ti182     1.0  0.38239  0.54871  0.44390  1.0000
  O   O516      1.0  0.42551  0.61048  0.44889  1.0000
  O   O517      1.0  0.33017  0.61598  0.44688  1.0000
  O   O518      1.0  0.00486  0.55260  0.47222  1.0000
  O   O519      1.0  0.00868  0.67487  0.03438  1.0000
  Ti  Ti183     1.0  0.00755  0.73566  0.05589  1.0000
  Ti  Ti184     1.0  0.37950  0.67865  0.06287  1.0000
  O   O520      1.0  0.43115  0.73810  0.05785  1.0000
  O   O521      1.0  0.33404  0.74286  0.05828  1.0000
  O   O522      1.0  0.37743  0.68117  0.09772  1.0000
  O   O523      1.0  0.25662  0.67984  0.08569  1.0000
  Ti  Ti185     1.0  0.37845  0.74277  0.12520  1.0000
  Ti  Ti186     1.0  0.25369  0.67676  0.12549  1.0000
  O   O524      1.0  0.30313  0.73879  0.12592  1.0000
  O   O525      1.0  0.45650  0.74436  0.12160  1.0000
  O   O526      1.0  0.00235  0.67858  0.16462  1.0000
  O   O527      1.0  0.38098  0.67829  0.14891  1.0000
  Ti  Ti187     1.0  0.00247  0.74066  0.19080  1.0000
  Ti  Ti188     1.0  0.38274  0.67764  0.18929  1.0000
  O   O528      1.0  0.42596  0.74132  0.18808  1.0000
  O   O529      1.0  0.33041  0.73824  0.18575  1.0000
  O   O530      1.0  0.38110  0.68066  0.22775  1.0000
  O   O531      1.0  0.25610  0.67797  0.21443  1.0000
  Ti  Ti189     1.0  0.38442  0.74418  0.25260  1.0000
  Ti  Ti190     1.0  0.25514  0.68649  0.25122  1.0000
  O   O532      1.0  0.30536  0.74348  0.25385  1.0000
  O   O533      1.0  0.45578  0.74209  0.25392  1.0000
  O   O534      1.0  0.00404  0.67425  0.29259  1.0000
  O   O535      1.0  0.37677  0.67724  0.27764  1.0000
  Ti  Ti191     1.0  0.00886  0.73782  0.31867  1.0000
  Ti  Ti192     1.0  0.38307  0.67519  0.31466  1.0000
  O   O536      1.0  0.42840  0.73750  0.31598  1.0000
  O   O537      1.0  0.32926  0.73650  0.31797  1.0000
  O   O538      1.0  0.37813  0.67548  0.35759  1.0000
  O   O539      1.0  0.25184  0.67337  0.34198  1.0000
  Ti  Ti193     1.0  0.37544  0.73638  0.38063  1.0000
  Ti  Ti194     1.0  0.00470  0.67222  0.38411  1.0000
  O   O540      1.0  0.30263  0.73634  0.38131  1.0000
  O   O541      1.0  0.45124  0.73678  0.38167  1.0000
  O   O542      1.0  0.25548  0.67355  0.41848  1.0000
  O   O543      1.0  0.37407  0.67094  0.40847  1.0000
  Ti  Ti195     1.0  0.00558  0.74173  0.44775  1.0000
  Ti  Ti196     1.0  0.38003  0.67552  0.44352  1.0000
  O   O544      1.0  0.42944  0.73861  0.44270  1.0000
  O   O545      1.0  0.33273  0.74103  0.45112  1.0000
  O   O546      1.0  0.00447  0.67637  0.47050  1.0000
  O   O547      1.0  0.00852  0.80490  0.03448  1.0000
  Ti  Ti197     1.0  0.00435  0.86539  0.05694  1.0000
  Ti  Ti198     1.0  0.38115  0.80377  0.06283  1.0000
  O   O548      1.0  0.42946  0.86460  0.05817  1.0000
  O   O549      1.0  0.33398  0.86579  0.05734  1.0000
  O   O550      1.0  0.37882  0.80810  0.09849  1.0000
  O   O551      1.0  0.25030  0.80152  0.08345  1.0000
  Ti  Ti199     1.0  0.37781  0.86756  0.12540  1.0000
  Ti  Ti200     1.0  0.25586  0.80300  0.11939  1.0000
  O   O552      1.0  0.30018  0.86620  0.12413  1.0000
  O   O553      1.0  0.45437  0.86551  0.12337  1.0000
  O   O554      1.0  0.00919  0.80319  0.16385  1.0000
  O   O555      1.0  0.37548  0.80331  0.14783  1.0000
  Ti  Ti201     1.0  0.00715  0.86423  0.18466  1.0000
  Ti  Ti202     1.0  0.37406  0.80121  0.19042  1.0000
  O   O556      1.0  0.42742  0.86572  0.18899  1.0000
  O   O557      1.0  0.33145  0.86141  0.18904  1.0000
  O   O558      1.0  0.38094  0.80717  0.22938  1.0000
  O   O559      1.0  0.25130  0.80396  0.21400  1.0000
  Ti  Ti203     1.0  0.37670  0.86842  0.25690  1.0000
  Ti  Ti204     1.0  0.25651  0.80774  0.25379  1.0000
  O   O560      1.0  0.30230  0.86875  0.25267  1.0000
  O   O561      1.0  0.45457  0.86059  0.25442  1.0000
  O   O562      1.0  0.00599  0.80003  0.29350  1.0000
  O   O563      1.0  0.37820  0.80277  0.27835  1.0000
  Ti  Ti205     1.0  0.00531  0.86116  0.32110  1.0000
  Ti  Ti206     1.0  0.37882  0.79943  0.31769  1.0000
  O   O564      1.0  0.42718  0.86351  0.31934  1.0000
  O   O565      1.0  0.33103  0.86156  0.31936  1.0000
  O   O566      1.0  0.37966  0.79603  0.35743  1.0000
  O   O567      1.0  0.25398  0.79803  0.34271  1.0000
  Ti  Ti207     1.0  0.37250  0.86368  0.38262  1.0000
  Ti  Ti208     1.0  0.49808  0.79597  0.38550  1.0000
  O   O568      1.0  0.30379  0.86349  0.38110  1.0000
  O   O569      1.0  0.45393  0.85970  0.38298  1.0000
  O   O570      1.0  0.25406  0.80434  0.42147  1.0000
  O   O571      1.0  0.37157  0.79794  0.40796  1.0000
  Ti  Ti209     1.0  0.00273  0.86626  0.45071  1.0000
  Ti  Ti210     1.0  0.37922  0.80094  0.44380  1.0000
  O   O572      1.0  0.42820  0.86183  0.45106  1.0000
  O   O573      1.0  0.33043  0.86698  0.45058  1.0000
  O   O574      1.0  0.00399  0.79982  0.47242  1.0000
  O   O575      1.0  0.00616  0.92776  0.03456  1.0000
  Ti  Ti211     1.0  0.00823  0.99165  0.05513  1.0000
  Ti  Ti212     1.0  0.37948  0.93043  0.06165  1.0000
  O   O576      1.0  0.42868  0.99491  0.06078  1.0000
  O   O577      1.0  0.33140  0.99370  0.05792  1.0000
  O   O578      1.0  0.37482  0.93030  0.09708  1.0000
  O   O579      1.0  0.25718  0.92398  0.08513  1.0000
  Ti  Ti213     1.0  0.37544  0.99050  0.12722  1.0000
  Ti  Ti214     1.0  0.24797  0.92651  0.11978  1.0000
  O   O580      1.0  0.30001  0.98694  0.12589  1.0000
  O   O581      1.0  0.45650  0.99286  0.12372  1.0000
  O   O582      1.0  0.00576  0.93156  0.16234  1.0000
  O   O583      1.0  0.37634  0.92806  0.14950  1.0000
  Ti  Ti215     1.0  0.00046  0.99036  0.18690  1.0000
  Ti  Ti216     1.0  0.38231  0.92510  0.19308  1.0000
  O   O584      1.0  0.42743  0.99331  0.19100  1.0000
  O   O585      1.0  0.33030  0.99132  0.18976  1.0000
  O   O586      1.0  0.37373  0.92863  0.22869  1.0000
  O   O587      1.0  0.25169  0.92642  0.21383  1.0000
  Ti  Ti217     1.0  0.37870  0.99172  0.25435  1.0000
  Ti  Ti218     1.0  0.25010  0.93111  0.25139  1.0000
  O   O588      1.0  0.30247  0.99023  0.25155  1.0000
  O   O589      1.0  0.45417  0.98734  0.25307  1.0000
  O   O590      1.0  0.00562  0.91972  0.29314  1.0000
  O   O591      1.0  0.37807  0.92903  0.27941  1.0000
  Ti  Ti219     1.0  0.00779  0.97886  0.31503  1.0000
  Ti  Ti220     1.0  0.38449  0.92421  0.32047  1.0000
  O   O592      1.0  0.42677  0.98389  0.31790  1.0000
  O   O593      1.0  0.33176  0.98684  0.31804  1.0000
  O   O594      1.0  0.38072  0.92391  0.35739  1.0000
  O   O595      1.0  0.25359  0.92581  0.33976  1.0000
  Ti  Ti221     1.0  0.37999  0.98422  0.38241  1.0000
  Ti  Ti222     1.0  0.49691  0.92241  0.38685  1.0000
  O   O596      1.0  0.30063  0.98246  0.38414  1.0000
  O   O597      1.0  0.45382  0.98933  0.38335  1.0000
  O   O598      1.0  0.25091  0.92492  0.42110  1.0000
  O   O599      1.0  0.37404  0.92186  0.40773  1.0000
  Ti  Ti223     1.0  0.00494  0.99532  0.44997  1.0000
  Ti  Ti224     1.0  0.37758  0.92422  0.45423  1.0000
  O   O600      1.0  0.42847  0.98933  0.44913  1.0000
  O   O601      1.0  0.33139  0.98737  0.44523  1.0000
  O   O602      1.0  0.00881  0.93029  0.47253  1.0000
  O   O603      1.0  0.13028  0.55515  0.02081  1.0000
  H   H309      1.0  0.16027  0.53394  0.01310  1.0000
  H   H310      1.0  0.09826  0.54839  0.00893  1.0000
  O   O604      1.0  0.13353  0.54257  0.48742  1.0000
  H   H311      1.0  0.14002  0.50248  0.49084  1.0000
  H   H312      1.0  0.16211  0.56775  0.49845  1.0000
  O   O605      1.0  0.12818  0.67180  0.01934  1.0000
  H   H313      1.0  0.16366  0.67933  0.01474  1.0000
  H   H314      1.0  0.13491  0.62902  0.01708  1.0000
  O   O606      1.0  0.12220  0.67733  0.49103  1.0000
  H   H315      1.0  0.15421  0.66972  0.50020  1.0000
  H   H316      1.0  0.09625  0.65734  0.50150  1.0000
  O   O607      1.0  0.15016  0.81273  0.01814  1.0000
  H   H317      1.0  0.18694  0.80767  0.02034  1.0000
  H   H318      1.0  0.13330  0.78637  0.00579  1.0000
  O   O608      1.0  0.14052  0.79715  0.48633  1.0000
  H   H319      1.0  0.12978  0.75722  0.49165  1.0000
  H   H320      1.0  0.17886  0.79579  0.48877  1.0000
  O   O609      1.0  0.12983  0.92272  0.02004  1.0000
  H   H321      1.0  0.09420  0.93155  0.01471  1.0000
  H   H322      1.0  0.13767  0.88111  0.01507  1.0000
  O   O610      1.0  0.11269  0.93544  0.48722  1.0000
  H   H323      1.0  0.12981  0.90623  0.49984  1.0000
  H   H324      1.0  0.07775  0.92399  0.48920  1.0000
  O   O611      1.0  0.38610  0.55176  0.01881  1.0000
  H   H325      1.0  0.41391  0.56861  0.00780  1.0000
  H   H326      1.0  0.35377  0.57196  0.01321  1.0000
  O   O612      1.0  0.36803  0.54401  0.48955  1.0000
  H   H327      1.0  0.33423  0.56215  0.49406  1.0000
  H   H328      1.0  0.36655  0.50469  0.49590  1.0000
  O   O613      1.0  0.37661  0.68511  0.01858  1.0000
  H   H329      1.0  0.40852  0.66924  0.01261  1.0000
  H   H330      1.0  0.38241  0.72628  0.01581  1.0000
  O   O614      1.0  0.39184  0.67915  0.48892  1.0000
  H   H331      1.0  0.42406  0.66521  0.49532  1.0000
  H   H332      1.0  0.36493  0.65635  0.49671  1.0000
  O   O615      1.0  0.36598  0.79575  0.01708  1.0000
  H   H333      1.0  0.39510  0.82133  0.01100  1.0000
  H   H334      1.0  0.33425  0.81744  0.01138  1.0000
  O   O616      1.0  0.38869  0.79758  0.49324  1.0000
  H   H335      1.0  0.41445  0.82437  0.49995  1.0000
  H   H336      1.0  0.26937  0.87192  0.52425  1.0000
  O   O617      1.0  0.38745  0.94319  0.02035  1.0000
  H   H337      1.0  0.39164  0.98419  0.01635  1.0000
  H   H338      1.0  0.41935  0.92354  0.01500  1.0000
  O   O618      1.0  0.37732  0.93450  0.48983  1.0000
  H   H339      1.0  0.41046  0.91769  0.49843  1.0000
  H   H340      1.0  0.40777  0.76205  0.49174  1.0000
  H   H341      1.0  0.34568  0.91321  0.93963  1.0000
  H   H342      1.0  0.37015  0.85733  0.92636  1.0000
  O   O619      1.0  0.34148  0.88024  0.92670  1.0000
  H   H343      1.0  0.22907  0.92342  0.87993  1.0000
  H   H344      1.0  0.21216  0.89386  0.85455  1.0000
  O   O620      1.0  0.20265  0.89750  0.87325  1.0000
  H   H345      1.0  0.30943  0.60601  0.59746  1.0000
  H   H346      1.0  0.27328  0.61575  0.62216  1.0000
  O   O621      1.0  0.27426  0.60736  0.60339  1.0000
  H   H347      1.0  0.08662  0.78525  0.57821  1.0000
  H   H348      1.0  0.09291  0.80442  0.60810  1.0000
  O   O622      1.0  0.07013  0.78127  0.59593  1.0000
  H   H349      1.0  0.20175  0.68042  0.83307  1.0000
  H   H350      1.0  0.22528  0.73662  0.84310  1.0000
  O   O623      1.0  0.20468  0.72077  0.82864  1.0000
  H   H351      1.0  0.10300  0.84364  0.65461  1.0000
  H   H352      1.0  0.10107  0.88111  0.62863  1.0000
  O   O624      1.0  0.10018  0.84176  0.63486  1.0000
  H   H353      1.0  0.49292  0.67631  0.82350  1.0000
  H   H354      1.0  0.45245  0.62792  0.82044  1.0000
  O   O625      1.0  0.45583  0.66806  0.82432  1.0000
  H   H355      1.0  0.23526  0.52337  0.79904  1.0000
  H   H356      1.0  0.17238  0.53555  0.79989  1.0000
  O   O626      1.0  0.20352  0.52738  0.81071  1.0000
  H   H357      1.0  0.25886  0.53005  0.56903  1.0000
  H   H358      1.0  0.24001  0.59135  0.56893  1.0000
  O   O627      1.0  0.23113  0.55498  0.56168  1.0000
  H   H359      1.0  0.49999  0.92744  0.99372  1.0000
  H   H360      1.0  0.03097  0.90328  0.96851  1.0000
  O   O628      1.0  0.01666  0.93799  0.97744  1.0000
  H   H361      1.0  0.22400  0.78550  0.97715  1.0000
  H   H362      1.0  0.24986  0.81523  0.95213  1.0000
  O   O629      1.0  0.23363  0.82410  0.96961  1.0000
  H   H363      1.0  0.24020  0.50714  0.93542  1.0000
  H   H364      1.0  0.20172  0.95931  0.92733  1.0000
  O   O630      1.0  0.21377  0.99695  0.92240  1.0000
  H   H365      1.0  0.40857  0.54260  0.62862  1.0000
  H   H366      1.0  0.35041  0.52596  0.63700  1.0000
  O   O631      1.0  0.37783  0.55596  0.63634  1.0000
  H   H367      1.0  0.26697  0.94447  0.58617  1.0000
  H   H368      1.0  0.25304  0.92804  0.61273  1.0000
  O   O632      1.0  0.24879  0.91514  0.59542  1.0000
  H   H369      1.0  0.42454  0.96782  0.84951  1.0000
  H   H370      1.0  0.42933  0.92724  0.87336  1.0000
  O   O633      1.0  0.43707  0.96705  0.86885  1.0000
  H   H371      1.0  0.07874  0.72837  0.82810  1.0000
  H   H372      1.0  0.07804  0.67211  0.84099  1.0000
  O   O634      1.0  0.06866  0.69031  0.82404  1.0000
  H   H373      1.0  0.29972  0.94795  0.54739  1.0000
  H   H374      1.0  0.35264  0.94914  0.56051  1.0000
  O   O635      1.0  0.32213  0.97175  0.55792  1.0000
  H   H375      1.0  0.15190  0.67406  0.63610  1.0000
  H   H376      1.0  0.17567  0.61476  0.64489  1.0000
  O   O636      1.0  0.17196  0.65554  0.65098  1.0000
  H   H377      1.0  0.36420  0.92677  0.69052  1.0000
  H   H378      1.0  0.42407  0.94566  0.69310  1.0000
  O   O637      1.0  0.38964  0.95273  0.69905  1.0000
  H   H379      1.0  0.37657  0.85259  0.62473  1.0000
  H   H380      1.0  0.31428  0.84984  0.62816  1.0000
  O   O638      1.0  0.34352  0.82785  0.62338  1.0000
  H   H381      1.0  0.02081  0.78392  0.50731  1.0000
  H   H382      1.0  0.48803  0.78822  0.53458  1.0000
  O   O639      1.0  0.02054  0.77774  0.52657  1.0000
  H   H383      1.0  0.33363  0.60406  0.92329  1.0000
  H   H384      1.0  0.39119  0.59177  0.92585  1.0000
  O   O640      1.0  0.36143  0.59680  0.93713  1.0000
  H   H385      1.0  0.24953  0.51959  0.97737  1.0000
  H   H386      1.0  0.28984  0.56824  0.97311  1.0000
  O   O641      1.0  0.27601  0.53369  0.96434  1.0000
  H   H387      1.0  0.28365  0.61715  0.00847  1.0000
  H   H388      1.0  0.32666  0.65401  0.99590  1.0000
  O   O642      1.0  0.30971  0.61941  0.99437  1.0000
  H   H389      1.0  0.02986  0.89347  0.69504  1.0000
  H   H390      1.0  0.01160  0.93837  0.71568  1.0000
  O   O643      1.0  0.01054  0.93027  0.69619  1.0000
  H   H391      1.0  0.08694  0.97048  0.73951  1.0000
  H   H392      1.0  0.14410  0.94871  0.73671  1.0000
  O   O644      1.0  0.12349  0.98229  0.73943  1.0000
  H   H393      1.0  0.22101  0.57147  0.49548  1.0000
  H   H394      1.0  0.21920  0.57347  0.52726  1.0000
  O   O645      1.0  0.20256  0.59067  0.51182  1.0000
  H   H395      1.0  0.27454  0.90714  0.71417  1.0000
  H   H396      1.0  0.31736  0.87441  0.73422  1.0000
  O   O646      1.0  0.27945  0.88348  0.73117  1.0000
  H   H397      1.0  0.07544  0.56495  0.58990  1.0000
  H   H398      1.0  0.05241  0.60367  0.60873  1.0000
  O   O647      1.0  0.04201  0.57349  0.59745  1.0000
  H   H399      1.0  0.42087  0.55790  0.51089  1.0000
  H   H400      1.0  0.47964  0.56202  0.50564  1.0000
  O   O648      1.0  0.45435  0.56875  0.52016  1.0000
  H   H401      1.0  0.25787  0.66869  0.49024  1.0000
  H   H402      1.0  0.33448  0.80352  0.51372  1.0000
  O   O649      1.0  0.30112  0.80837  0.52339  1.0000
  H   H403      1.0  0.48146  0.72600  0.96553  1.0000
  H   H404      1.0  0.00057  0.66714  0.97643  1.0000
  O   O650      1.0  0.01081  0.70211  0.96783  1.0000
  H   H405      1.0  0.48575  0.74106  0.74744  1.0000
  H   H406      1.0  0.44949  0.75056  0.72417  1.0000
  O   O651      1.0  0.45234  0.72774  0.74042  1.0000
  H   H407      1.0  0.17595  0.68433  0.68684  1.0000
  H   H408      1.0  0.21158  0.72673  0.70141  1.0000
  O   O652      1.0  0.18204  0.69734  0.70523  1.0000
  H   H409      1.0  0.19264  0.66044  0.73334  1.0000
  H   H410      1.0  0.22438  0.63028  0.75662  1.0000
  O   O653      1.0  0.19253  0.65103  0.75166  1.0000
  H   H411      1.0  0.11633  0.69735  0.88536  1.0000
  H   H412      1.0  0.13103  0.71445  0.91325  1.0000
  O   O654      1.0  0.13049  0.72909  0.89530  1.0000
  H   H413      1.0  0.26999  0.94515  0.83289  1.0000
  H   H414      1.0  0.27831  0.98567  0.85561  1.0000
  O   O655      1.0  0.29488  0.97517  0.83966  1.0000
  H   H415      1.0  0.17307  0.83652  0.59379  1.0000
  H   H416      1.0  0.18302  0.89857  0.58775  1.0000
  O   O656      1.0  0.15971  0.86716  0.58262  1.0000
  H   H417      1.0  0.20575  0.70834  0.58116  1.0000
  H   H418      1.0  0.15998  0.73012  0.56586  1.0000
  O   O657      1.0  0.18192  0.69754  0.56758  1.0000
  H   H419      1.0  0.19224  0.55771  0.61159  1.0000
  H   H420      1.0  0.15691  0.51994  0.62655  1.0000
  O   O658      1.0  0.18230  0.54835  0.62909  1.0000
  H   H421      1.0  0.48700  0.64019  0.69382  1.0000
  H   H422      1.0  0.02980  0.69446  0.69720  1.0000
  O   O659      1.0  0.01813  0.66101  0.68506  1.0000
  H   H423      1.0  0.12953  0.88235  0.87033  1.0000
  H   H424      1.0  0.07415  0.90711  0.86244  1.0000
  O   O660      1.0  0.09318  0.87281  0.86770  1.0000
  H   H425      1.0  0.05631  0.82389  0.96141  1.0000
  H   H426      1.0  0.06091  0.83123  0.93139  1.0000
  O   O661      1.0  0.06786  0.85427  0.94814  1.0000
  H   H427      1.0  0.30566  0.80526  0.54297  1.0000
  H   H428      1.0  0.27164  0.92482  0.50833  1.0000
  O   O662      1.0  0.25956  0.91221  0.52563  1.0000
  H   H429      1.0  0.32774  0.80523  0.59184  1.0000
  H   H430      1.0  0.35748  0.76167  0.57549  1.0000
  O   O663      1.0  0.32792  0.78682  0.57530  1.0000
  H   H431      1.0  0.40552  0.76353  0.90194  1.0000
  H   H432      1.0  0.45098  0.80531  0.89963  1.0000
  O   O664      1.0  0.42707  0.78744  0.91149  1.0000
  H   H433      1.0  0.10323  0.67100  0.79494  1.0000
  H   H434      1.0  0.13765  0.65879  0.76875  1.0000
  O   O665      1.0  0.10232  0.66285  0.77631  1.0000
  H   H435      1.0  0.10927  0.62065  0.66330  1.0000
  H   H436      1.0  0.06227  0.62033  0.68208  1.0000
  O   O666      1.0  0.08684  0.59379  0.67302  1.0000
  H   H437      1.0  0.04949  0.51639  0.80199  1.0000
  H   H438      1.0  0.48584  0.52086  0.80754  1.0000
  O   O667      1.0  0.01868  0.50229  0.81166  1.0000
  H   H439      1.0  0.09954  0.95663  0.60819  1.0000
  H   H440      1.0  0.08577  0.97079  0.63727  1.0000
  O   O668      1.0  0.11514  0.95722  0.62517  1.0000
  H   H441      1.0  0.38033  0.92564  0.75824  1.0000
  H   H442      1.0  0.39971  0.95018  0.78479  1.0000
  O   O669      1.0  0.38133  0.96025  0.76878  1.0000
  H   H443      1.0  0.35243  0.77676  0.65168  1.0000
  H   H444      1.0  0.36592  0.71586  0.65879  1.0000
  O   O670      1.0  0.35423  0.75117  0.66657  1.0000
  H   H445      1.0  0.30314  0.57634  0.82196  1.0000
  H   H446      1.0  0.31323  0.60359  0.79472  1.0000
  O   O671      1.0  0.32887  0.59673  0.81259  1.0000
  H   H447      1.0  0.42990  0.63703  0.72209  1.0000
  H   H448      1.0  0.40507  0.59921  0.70079  1.0000
  O   O672      1.0  0.43970  0.61088  0.70873  1.0000
  H   H449      1.0  0.12482  0.73451  0.71316  1.0000
  H   H450      1.0  0.07478  0.74999  0.72954  1.0000
  O   O673      1.0  0.08804  0.75056  0.71131  1.0000
  H   H451      1.0  0.20645  0.92446  0.80827  1.0000
  H   H452      1.0  0.23853  0.86740  0.80995  1.0000
  O   O674      1.0  0.21712  0.89389  0.82017  1.0000
  H   H453      1.0  0.05068  0.51244  0.98179  1.0000
  H   H454      1.0  0.08056  0.54118  0.95972  1.0000
  O   O675      1.0  0.07665  0.54197  0.97959  1.0000
  H   H455      1.0  0.18333  0.96672  0.98488  1.0000
  H   H456      1.0  0.22158  0.95987  0.00822  1.0000
  O   O676      1.0  0.20673  0.98852  0.99619  1.0000
  H   H457      1.0  0.18184  0.76145  0.88279  1.0000
  H   H458      1.0  0.20879  0.82281  0.87980  1.0000
  O   O677      1.0  0.21404  0.78140  0.87744  1.0000
  H   H459      1.0  0.48533  0.58648  0.99756  1.0000
  H   H460      1.0  0.44711  0.57878  0.97580  1.0000
  O   O678      1.0  0.45224  0.60151  0.99071  1.0000
  H   H461      1.0  0.39835  0.85025  0.72484  1.0000
  H   H462      1.0  0.37422  0.81484  0.74817  1.0000
  O   O679      1.0  0.37359  0.85085  0.73912  1.0000
  H   H463      1.0  0.48069  0.89044  0.50092  1.0000
  H   H464      1.0  0.45179  0.89004  0.53091  1.0000
  O   O680      1.0  0.45389  0.87194  0.51284  1.0000
  H   H465      1.0  0.31938  0.73391  0.94838  1.0000
  H   H466      1.0  0.34606  0.67520  0.95210  1.0000
  O   O681      1.0  0.33650  0.71088  0.96203  1.0000
  H   H467      1.0  0.13721  0.62632  0.86090  1.0000
  H   H468      1.0  0.08188  0.60267  0.87238  1.0000
  O   O682      1.0  0.10089  0.63783  0.86736  1.0000
  H   H469      1.0  0.46049  0.83455  0.60388  1.0000
  H   H470      1.0  0.01032  0.80645  0.59295  1.0000
  O   O683      1.0  0.47512  0.81969  0.58772  1.0000
  H   H471      1.0  0.39255  0.57118  0.80943  1.0000
  H   H472      1.0  0.43204  0.56675  0.78670  1.0000
  O   O684      1.0  0.42812  0.57197  0.80586  1.0000
  H   H473      1.0  0.39783  0.72867  0.76134  1.0000
  H   H474      1.0  0.35440  0.71947  0.78555  1.0000
  O   O685      1.0  0.36075  0.73464  0.76797  1.0000
  H   H475      1.0  0.43467  0.83139  0.97979  1.0000
  H   H476      1.0  0.46706  0.83392  0.00408  1.0000
  O   O686      1.0  0.44024  0.85625  0.99567  1.0000
  H   H477      1.0  0.04647  0.57448  0.52980  1.0000
  H   H478      1.0  0.07468  0.53542  0.50905  1.0000
  O   O687      1.0  0.05421  0.53684  0.52455  1.0000
  H   H479      1.0  0.11465  0.87259  0.69480  1.0000
  H   H480      1.0  0.08662  0.81211  0.69936  1.0000
  O   O688      1.0  0.08406  0.84781  0.68834  1.0000
  H   H481      1.0  0.04871  0.51546  0.87740  1.0000
  H   H482      1.0  0.01829  0.55632  0.89500  1.0000
  O   O689      1.0  0.05432  0.54875  0.88990  1.0000
  H   H483      1.0  0.36886  0.62394  0.63294  1.0000
  H   H484      1.0  0.37646  0.68349  0.61765  1.0000
  O   O690      1.0  0.37873  0.66451  0.63434  1.0000
  H   H485      1.0  0.21567  0.69757  0.97167  1.0000
  H   H486      1.0  0.23462  0.71191  0.99887  1.0000
  O   O691      1.0  0.20861  0.72116  0.98707  1.0000
  H   H487      1.0  0.07273  0.83850  0.89173  1.0000
  H   H488      1.0  0.08419  0.78128  0.90205  1.0000
  O   O692      1.0  0.05650  0.80755  0.90231  1.0000
  H   H489      1.0  0.41444  0.51219  0.75289  1.0000
  H   H490      1.0  0.43714  0.56416  0.73682  1.0000
  O   O693      1.0  0.44153  0.53957  0.75216  1.0000
  H   H491      1.0  0.21118  0.60272  0.94407  1.0000
  H   H492      1.0  0.16802  0.64075  0.94003  1.0000
  O   O694      1.0  0.20451  0.64163  0.94394  1.0000
  H   H493      1.0  0.31196  0.85288  0.78115  1.0000
  H   H494      1.0  0.29434  0.79050  0.78398  1.0000
  O   O695      1.0  0.29963  0.82535  0.79337  1.0000
  H   H495      1.0  0.46752  0.52471  0.54894  1.0000
  H   H496      1.0  0.01144  0.98677  0.56169  1.0000
  O   O696      1.0  0.47404  0.99754  0.56231  1.0000
  H   H497      1.0  0.23891  0.71803  0.79653  1.0000
  H   H498      1.0  0.23233  0.70605  0.76761  1.0000
  O   O697      1.0  0.25498  0.72551  0.77980  1.0000
  H   H499      1.0  0.13802  0.68312  0.59565  1.0000
  H   H500      1.0  0.09007  0.70802  0.60550  1.0000
  O   O698      1.0  0.11505  0.67689  0.60976  1.0000
  H   H501      1.0  0.30803  0.97175  0.77115  1.0000
  H   H502      1.0  0.25612  0.96157  0.75548  1.0000
  O   O699      1.0  0.27237  0.98400  0.76952  1.0000
  H   H503      1.0  0.11314  0.82493  0.84652  1.0000
  H   H504      1.0  0.15279  0.78003  0.83507  1.0000
  O   O700      1.0  0.11828  0.79707  0.83220  1.0000
  H   H505      1.0  0.01687  0.66066  0.50384  1.0000
  H   H506      1.0  0.02794  0.69622  0.52936  1.0000
  O   O701      1.0  0.03981  0.66204  0.51977  1.0000
  H   H507      1.0  0.41929  0.99102  0.95884  1.0000
  H   H508      1.0  0.47555  0.99464  0.96226  1.0000
  O   O702      1.0  0.44754  0.51905  0.95499  1.0000
  H   H509      1.0  0.43317  0.69080  0.58179  1.0000
  H   H510      1.0  0.44133  0.75390  0.58809  1.0000
  O   O703      1.0  0.41397  0.72697  0.58403  1.0000
  H   H511      1.0  0.12419  0.81452  0.54131  1.0000
  H   H512      1.0  0.07759  0.77476  0.54198  1.0000
  O   O704      1.0  0.11061  0.78072  0.55111  1.0000
  H   H513      1.0  0.36988  0.56663  0.66986  1.0000
  H   H514      1.0  0.36898  0.53215  0.69666  1.0000
  O   O705      1.0  0.35729  0.56804  0.68883  1.0000
  H   H515      1.0  0.27375  0.56480  0.88653  1.0000
  H   H516      1.0  0.22875  0.52598  0.89317  1.0000
  O   O706      1.0  0.24807  0.54051  0.87773  1.0000
  H   H517      1.0  0.00136  0.69274  0.65272  1.0000
  H   H518      1.0  0.46063  0.70319  0.62827  1.0000
  O   O707      1.0  0.49129  0.71743  0.63738  1.0000
  H   H519      1.0  0.19100  0.88222  0.96279  1.0000
  H   H520      1.0  0.13221  0.88915  0.95667  1.0000
  O   O708      1.0  0.16543  0.91151  0.95622  1.0000
  H   H521      1.0  0.27554  0.75258  0.59486  1.0000
  H   H522      1.0  0.26185  0.69723  0.61127  1.0000
  O   O709      1.0  0.24892  0.73327  0.60386  1.0000
  H   H523      1.0  0.06907  0.78414  0.76908  1.0000
  H   H524      1.0  0.07289  0.71892  0.76835  1.0000
  O   O710      1.0  0.05158  0.75069  0.76269  1.0000
  H   H525      1.0  0.47639  0.51666  0.60241  1.0000
  H   H526      1.0  0.48608  0.51786  0.63341  1.0000
  O   O711      1.0  0.46080  0.50753  0.61955  1.0000
  H   H527      1.0  0.21997  0.56176  0.70509  1.0000
  H   H528      1.0  0.27644  0.57831  0.70418  1.0000
  O   O712      1.0  0.25390  0.54841  0.70985  1.0000
  H   H529      1.0  0.29605  0.61582  0.75020  1.0000
  H   H530      1.0  0.27668  0.55485  0.76168  1.0000
  O   O713      1.0  0.28008  0.59735  0.76545  1.0000
  H   H531      1.0  0.04087  0.79544  0.00872  1.0000
  H   H532      1.0  0.04450  0.74434  0.98885  1.0000
  O   O714      1.0  0.06168  0.77958  0.99319  1.0000
  H   H533      1.0  0.38177  0.68882  0.87887  1.0000
  H   H534      1.0  0.34744  0.72840  0.86117  1.0000
  O   O715      1.0  0.35248  0.71760  0.87983  1.0000
  H   H535      1.0  0.03078  0.98320  0.84217  1.0000
  H   H536      1.0  0.49832  0.96839  0.86598  1.0000
  O   O716      1.0  0.03595  0.96840  0.86055  1.0000
  H   H537      1.0  0.33980  0.66799  0.82018  1.0000
  H   H538      1.0  0.39003  0.70456  0.82031  1.0000
  O   O717      1.0  0.35323  0.70851  0.82069  1.0000
  H   H539      1.0  0.41566  0.81973  0.81159  1.0000
  H   H540      1.0  0.35170  0.82416  0.80895  1.0000
  O   O718      1.0  0.38530  0.84114  0.81655  1.0000
  H   H541      1.0  0.37217  0.85361  0.86424  1.0000
  H   H542      1.0  0.36035  0.88530  0.89059  1.0000
  O   O719      1.0  0.38716  0.86994  0.87974  1.0000
  H   H543      1.0  0.09855  0.54154  0.91684  1.0000
  H   H544      1.0  0.15174  0.53617  0.93033  1.0000
  O   O720      1.0  0.11606  0.55029  0.93258  1.0000
  H   H545      1.0  0.21509  0.58823  0.85624  1.0000
  H   H546      1.0  0.19296  0.58414  0.82857  1.0000
  O   O721      1.0  0.19074  0.61144  0.84364  1.0000
  H   H547      1.0  0.08935  0.62941  0.93172  1.0000
  H   H548      1.0  0.06678  0.68179  0.94541  1.0000
  O   O722      1.0  0.09831  0.66757  0.93706  1.0000
  H   H549      1.0  0.39585  0.59688  0.57322  1.0000
  H   H550      1.0  0.36367  0.54649  0.56528  1.0000
  O   O723      1.0  0.35892  0.58590  0.56920  1.0000
  H   H551      1.0  0.02718  0.84303  0.64395  1.0000
  H   H552      1.0  0.49308  0.79325  0.64785  1.0000
  O   O724      1.0  0.49460  0.83372  0.65284  1.0000
  H   H553      1.0  0.00338  0.86775  0.79797  1.0000
  H   H554      1.0  0.01340  0.93269  0.79737  1.0000
  O   O725      1.0  0.01678  0.89789  0.78639  1.0000
  H   H555      1.0  0.27741  0.80385  0.70822  1.0000
  H   H556      1.0  0.29896  0.76062  0.68956  1.0000
  O   O726      1.0  0.27100  0.76487  0.70247  1.0000
  H   H557      1.0  0.35741  0.96302  0.83059  1.0000
  H   H558      1.0  0.39139  0.91015  0.82102  1.0000
  O   O727      1.0  0.39205  0.95264  0.82237  1.0000
  H   H559      1.0  0.33686  0.62028  0.54148  1.0000
  H   H560      1.0  0.29100  0.65823  0.52865  1.0000
  O   O728      1.0  0.31968  0.63205  0.52484  1.0000
  H   H561      1.0  0.25986  0.51922  0.63244  1.0000
  H   H562      1.0  0.27945  0.97740  0.65387  1.0000
  O   O729      1.0  0.28635  0.98907  0.63590  1.0000
  H   H563      1.0  0.11804  0.83513  0.79755  1.0000
  H   H564      1.0  0.07874  0.87378  0.78329  1.0000
  O   O730      1.0  0.10764  0.84834  0.78091  1.0000
  H   H565      1.0  0.02038  0.92673  0.75930  1.0000
  H   H566      1.0  0.49729  0.98440  0.75124  1.0000
  O   O731      1.0  0.02158  0.95725  0.74532  1.0000
  H   H567      1.0  0.46308  0.61485  0.54906  1.0000
  H   H568      1.0  0.49179  0.60367  0.57483  1.0000
  O   O732      1.0  0.46011  0.61994  0.56778  1.0000
  H   H569      1.0  0.12336  0.55533  0.68836  1.0000
  H   H570      1.0  0.14235  0.51708  0.71079  1.0000
  O   O733      1.0  0.15169  0.52902  0.69335  1.0000
  H   H571      1.0  0.16135  0.92312  0.65764  1.0000
  H   H572      1.0  0.15721  0.96479  0.68089  1.0000
  O   O734      1.0  0.17491  0.92904  0.67475  1.0000
  H   H573      1.0  0.15757  0.87353  0.75230  1.0000
  H   H574      1.0  0.21078  0.86981  0.73622  1.0000
  O   O735      1.0  0.17530  0.88047  0.73534  1.0000
  H   H575      1.0  0.33364  0.69435  0.74760  1.0000
  H   H576      1.0  0.29695  0.70096  0.72369  1.0000
  O   O736      1.0  0.32067  0.67346  0.73194  1.0000
  H   H577      1.0  0.03294  0.87741  0.57361  1.0000
  H   H578      1.0  0.07893  0.89538  0.55416  1.0000
  O   O737      1.0  0.04647  0.90656  0.56206  1.0000
  H   H579      1.0  0.25114  0.65395  0.91330  1.0000
  H   H580      1.0  0.30324  0.66783  0.89706  1.0000
  O   O738      1.0  0.27748  0.64050  0.90181  1.0000
  H   H581      1.0  0.43968  0.52450  0.89144  1.0000
  H   H582      1.0  0.44893  0.53002  0.92269  1.0000
  O   O739      1.0  0.44776  0.55148  0.90532  1.0000
  H   H583      1.0  0.40268  0.78774  0.68509  1.0000
  H   H584      1.0  0.45547  0.82838  0.68382  1.0000
  O   O740      1.0  0.43151  0.80962  0.69495  1.0000
  H   H585      1.0  0.41285  0.88158  0.57121  1.0000
  H   H586      1.0  0.44229  0.93871  0.56391  1.0000
  O   O741      1.0  0.41448  0.91147  0.55831  1.0000
  H   H587      1.0  0.06030  0.52873  0.66414  1.0000
  H   H588      1.0  0.03095  0.97259  0.67145  1.0000
  O   O742      1.0  0.04674  0.99503  0.65637  1.0000
  H   H589      1.0  0.32696  0.99467  0.96278  1.0000
  H   H590      1.0  0.34092  0.93254  0.97581  1.0000
  O   O743      1.0  0.35347  0.96071  0.96277  1.0000
  H   H591      1.0  0.49467  0.79168  0.82999  1.0000
  H   H592      1.0  0.49352  0.77070  0.80001  1.0000
  O   O744      1.0  0.48789  0.80118  0.81231  1.0000
  H   H593      1.0  0.23412  0.94089  0.68534  1.0000
  H   H594      1.0  0.26866  0.98339  0.69844  1.0000
  O   O745      1.0  0.27091  0.94744  0.68898  1.0000
  H   H595      1.0  0.24669  0.66072  0.65607  1.0000
  H   H596      1.0  0.30603  0.67807  0.65829  1.0000
  O   O746      1.0  0.28129  0.64722  0.65871  1.0000
  O   O747      1.0  0.11028  0.54251  0.78519  1.0000
  H   H597      1.0  0.10345  0.58352  0.78120  1.0000
  H   H598      1.0  0.11497  0.52757  0.76783  1.0000
  O   O748      1.0  0.49932  0.76953  0.86613  1.0000
  H   H599      1.0  0.02377  0.77878  0.88005  1.0000
  H   H600      1.0  0.48246  0.73321  0.86674  1.0000
  O   O749      1.0  0.42868  0.64218  0.87775  1.0000
  H   H601      1.0  0.43208  0.60388  0.88599  1.0000
  H   H602      1.0  0.44954  0.64251  0.86065  1.0000
  O   O750      1.0  0.42970  0.88548  0.62455  1.0000
  H   H603      1.0  0.45383  0.87079  0.63762  1.0000
  H   H604      1.0  0.43691  0.92473  0.61887  1.0000
  O   O751      1.0  0.42559  0.77994  0.96154  1.0000
  H   H605      1.0  0.39178  0.76238  0.96653  1.0000
  H   H606      1.0  0.43150  0.78839  0.94258  1.0000
  O   O752      1.0  0.24273  0.71073  0.52414  1.0000
  H   H607      1.0  0.21869  0.71008  0.53904  1.0000
  H   H608      1.0  0.25429  0.74806  0.52148  1.0000
  O   O753      1.0  0.28255  0.78665  0.92803  1.0000
  H   H609      1.0  0.26591  0.78345  0.91155  1.0000
  H   H610      1.0  0.30328  0.82061  0.92683  1.0000
  O   O754      1.0  0.15965  0.88087  0.53221  1.0000
  H   H611      1.0  0.16696  0.86691  0.55015  1.0000
  H   H612      1.0  0.18825  0.90810  0.53129  1.0000
  O   O755      1.0  0.30726  0.86995  0.99478  1.0000
  H   H613      1.0  0.29565  0.89459  0.00949  1.0000
  H   H614      1.0  0.27718  0.85335  0.98618  1.0000
  O   O756      1.0  0.11991  0.52790  0.57027  1.0000
  H   H615      1.0  0.15229  0.53929  0.56261  1.0000
  H   H616      1.0  0.10294  0.51885  0.55405  1.0000
  O   O757      1.0  0.75334  0.05487  0.03467  1.0000
  Ti  Ti225     1.0  0.75526  0.11982  0.06201  1.0000
  Ti  Ti226     1.0  0.63140  0.05475  0.06375  1.0000
  O   O758      1.0  0.67554  0.12019  0.06189  1.0000
  O   O759      1.0  0.58061  0.11680  0.06041  1.0000
  O   O760      1.0  0.62858  0.05272  0.10031  1.0000
  O   O761      1.0  0.50628  0.05590  0.08559  1.0000
  Ti  Ti227     1.0  0.62430  0.12122  0.12596  1.0000
  Ti  Ti228     1.0  0.50495  0.05792  0.12096  1.0000
  O   O762      1.0  0.55449  0.11505  0.12440  1.0000
  O   O763      1.0  0.70185  0.11704  0.12191  1.0000
  O   O764      1.0  0.75091  0.05294  0.16303  1.0000
  O   O765      1.0  0.63280  0.05816  0.15071  1.0000
  Ti  Ti229     1.0  0.75380  0.11645  0.19058  1.0000
  Ti  Ti230     1.0  0.63159  0.05140  0.19167  1.0000
  O   O766      1.0  0.67828  0.11370  0.19061  1.0000
  O   O767      1.0  0.58084  0.11523  0.18840  1.0000
  O   O768      1.0  0.62595  0.05027  0.22809  1.0000
  O   O769      1.0  0.50225  0.05475  0.21566  1.0000
  Ti  Ti231     1.0  0.62994  0.11510  0.25377  1.0000
  Ti  Ti232     1.0  0.50186  0.05079  0.25625  1.0000
  O   O770      1.0  0.55428  0.11216  0.25305  1.0000
  O   O771      1.0  0.70504  0.11657  0.25140  1.0000
  O   O772      1.0  0.75457  0.05144  0.29200  1.0000
  O   O773      1.0  0.63071  0.05101  0.27774  1.0000
  Ti  Ti233     1.0  0.75941  0.11519  0.31453  1.0000
  Ti  Ti234     1.0  0.63359  0.04512  0.31603  1.0000
  O   O774      1.0  0.67848  0.10630  0.31702  1.0000
  O   O775      1.0  0.57935  0.10536  0.31482  1.0000
  O   O776      1.0  0.62633  0.04936  0.35806  1.0000
  O   O777      1.0  0.50331  0.04368  0.34360  1.0000
  Ti  Ti235     1.0  0.62912  0.11351  0.38123  1.0000
  Ti  Ti236     1.0  0.75625  0.04818  0.37865  1.0000
  O   O778      1.0  0.55233  0.11065  0.38188  1.0000
  O   O779      1.0  0.70446  0.11127  0.37819  1.0000
  O   O780      1.0  0.50142  0.05458  0.42019  1.0000
  O   O781      1.0  0.63033  0.04990  0.40785  1.0000
  Ti  Ti237     1.0  0.75664  0.11490  0.44153  1.0000
  Ti  Ti238     1.0  0.63261  0.05085  0.44546  1.0000
  O   O782      1.0  0.68079  0.11915  0.44690  1.0000
  O   O783      1.0  0.58057  0.11315  0.44744  1.0000
  O   O784      1.0  0.75524  0.04913  0.47095  1.0000
  O   O785      1.0  0.75118  0.17454  0.03600  1.0000
  Ti  Ti239     1.0  0.75324  0.24151  0.05520  1.0000
  Ti  Ti240     1.0  0.62879  0.18061  0.06392  1.0000
  O   O786      1.0  0.67531  0.23816  0.06183  1.0000
  O   O787      1.0  0.58368  0.24251  0.05934  1.0000
  O   O788      1.0  0.62524  0.17985  0.09924  1.0000
  O   O789      1.0  0.50340  0.18059  0.08484  1.0000
  Ti  Ti241     1.0  0.63259  0.24222  0.12707  1.0000
  Ti  Ti242     1.0  0.50003  0.18494  0.12583  1.0000
  O   O790      1.0  0.55227  0.24169  0.12375  1.0000
  O   O791      1.0  0.70799  0.23603  0.12258  1.0000
  O   O792      1.0  0.75543  0.17599  0.16370  1.0000
  O   O793      1.0  0.62827  0.17810  0.14983  1.0000
  Ti  Ti243     1.0  0.75508  0.24308  0.18771  1.0000
  Ti  Ti244     1.0  0.62698  0.17907  0.19030  1.0000
  O   O794      1.0  0.67606  0.23659  0.19024  1.0000
  O   O795      1.0  0.58086  0.24025  0.18671  1.0000
  O   O796      1.0  0.62341  0.17354  0.22874  1.0000
  O   O797      1.0  0.50169  0.18469  0.21540  1.0000
  Ti  Ti245     1.0  0.62956  0.23843  0.25240  1.0000
  Ti  Ti246     1.0  0.50412  0.17457  0.25541  1.0000
  O   O798      1.0  0.55457  0.23771  0.25371  1.0000
  O   O799      1.0  0.70540  0.24438  0.25374  1.0000
  O   O800      1.0  0.75404  0.17726  0.29213  1.0000
  O   O801      1.0  0.62680  0.17756  0.27950  1.0000
  Ti  Ti247     1.0  0.75214  0.23791  0.32052  1.0000
  Ti  Ti248     1.0  0.62980  0.16864  0.31754  1.0000
  O   O802      1.0  0.67733  0.23360  0.31900  1.0000
  O   O803      1.0  0.58139  0.23779  0.31668  1.0000
  O   O804      1.0  0.62623  0.17485  0.35632  1.0000
  O   O805      1.0  0.50378  0.17559  0.34300  1.0000
  Ti  Ti249     1.0  0.63107  0.23863  0.38080  1.0000
  Ti  Ti250     1.0  0.75763  0.17353  0.38043  1.0000
  O   O806      1.0  0.55035  0.23634  0.38398  1.0000
  O   O807      1.0  0.70669  0.23173  0.38330  1.0000
  O   O808      1.0  0.50543  0.16926  0.42044  1.0000
  O   O809      1.0  0.62449  0.17734  0.40682  1.0000
  Ti  Ti251     1.0  0.75455  0.24697  0.45075  1.0000
  Ti  Ti252     1.0  0.62820  0.17271  0.44197  1.0000
  O   O810      1.0  0.67652  0.23350  0.44875  1.0000
  O   O811      1.0  0.58089  0.24117  0.44771  1.0000
  O   O812      1.0  0.75094  0.18106  0.47307  1.0000
  O   O813      1.0  0.74754  0.30226  0.03340  1.0000
  Ti  Ti253     1.0  0.75109  0.36751  0.05764  1.0000
  Ti  Ti254     1.0  0.62710  0.30670  0.06244  1.0000
  O   O814      1.0  0.67838  0.36595  0.06008  1.0000
  O   O815      1.0  0.58201  0.37071  0.06092  1.0000
  O   O816      1.0  0.62967  0.30075  0.09967  1.0000
  O   O817      1.0  0.50804  0.30399  0.08317  1.0000
  Ti  Ti255     1.0  0.62965  0.36946  0.12585  1.0000
  Ti  Ti256     1.0  0.50562  0.31030  0.11879  1.0000
  O   O818      1.0  0.55481  0.37004  0.12455  1.0000
  O   O819      1.0  0.70399  0.36044  0.12437  1.0000
  O   O820      1.0  0.75175  0.29733  0.16496  1.0000
  O   O821      1.0  0.63079  0.30832  0.14971  1.0000
  Ti  Ti257     1.0  0.75161  0.36732  0.18807  1.0000
  Ti  Ti258     1.0  0.63256  0.30254  0.18971  1.0000
  O   O822      1.0  0.67875  0.36712  0.18951  1.0000
  O   O823      1.0  0.58091  0.36773  0.18960  1.0000
  O   O824      1.0  0.62770  0.30038  0.22862  1.0000
  O   O825      1.0  0.50845  0.30646  0.21142  1.0000
  Ti  Ti259     1.0  0.63044  0.36524  0.25061  1.0000
  Ti  Ti260     1.0  0.51351  0.30037  0.25580  1.0000
  O   O826      1.0  0.55366  0.36394  0.25260  1.0000
  O   O827      1.0  0.70310  0.36576  0.25238  1.0000
  O   O828      1.0  0.75631  0.30320  0.29164  1.0000
  O   O829      1.0  0.62643  0.29906  0.27675  1.0000
  Ti  Ti261     1.0  0.75636  0.36384  0.31738  1.0000
  Ti  Ti262     1.0  0.63195  0.29704  0.31397  1.0000
  O   O830      1.0  0.67921  0.36306  0.31306  1.0000
  O   O831      1.0  0.58020  0.36098  0.31981  1.0000
  O   O832      1.0  0.62996  0.30079  0.35725  1.0000
  O   O833      1.0  0.50350  0.30008  0.34404  1.0000
  Ti  Ti263     1.0  0.62067  0.36561  0.38151  1.0000
  Ti  Ti264     1.0  0.74920  0.29876  0.38582  1.0000
  O   O834      1.0  0.55351  0.36511  0.38321  1.0000
  O   O835      1.0  0.71194  0.36317  0.37868  1.0000
  O   O836      1.0  0.50289  0.30184  0.42147  1.0000
  O   O837      1.0  0.63556  0.30374  0.40602  1.0000
  Ti  Ti265     1.0  0.75256  0.37157  0.44935  1.0000
  Ti  Ti266     1.0  0.63014  0.29851  0.44606  1.0000
  O   O838      1.0  0.67897  0.36361  0.44854  1.0000
  O   O839      1.0  0.58163  0.36477  0.44633  1.0000
  O   O840      1.0  0.74382  0.30598  0.47212  1.0000
  O   O841      1.0  0.75733  0.42841  0.03336  1.0000
  Ti  Ti267     1.0  0.75540  0.49817  0.05640  1.0000
  Ti  Ti268     1.0  0.63235  0.43132  0.06393  1.0000
  O   O842      1.0  0.68018  0.48937  0.05688  1.0000
  O   O843      1.0  0.58277  0.48991  0.05945  1.0000
  O   O844      1.0  0.63774  0.43131  0.09906  1.0000
  O   O845      1.0  0.50533  0.43066  0.08372  1.0000
  Ti  Ti269     1.0  0.62832  0.49659  0.12637  1.0000
  Ti  Ti270     1.0  0.50145  0.43208  0.12061  1.0000
  O   O846      1.0  0.55071  0.49515  0.12620  1.0000
  O   O847      1.0  0.70307  0.49482  0.12206  1.0000
  O   O848      1.0  0.75551  0.42703  0.16422  1.0000
  O   O849      1.0  0.62877  0.43019  0.14880  1.0000
  Ti  Ti271     1.0  0.75425  0.48918  0.18574  1.0000
  Ti  Ti272     1.0  0.62695  0.43175  0.18858  1.0000
  O   O850      1.0  0.67773  0.48874  0.18859  1.0000
  O   O851      1.0  0.58249  0.49260  0.18883  1.0000
  O   O852      1.0  0.62867  0.42773  0.22894  1.0000
  O   O853      1.0  0.50432  0.42782  0.21401  1.0000
  Ti  Ti273     1.0  0.62381  0.48867  0.25392  1.0000
  Ti  Ti274     1.0  0.99943  0.42162  0.24771  1.0000
  O   O854      1.0  0.55345  0.48509  0.25435  1.0000
  O   O855      1.0  0.70548  0.49256  0.25449  1.0000
  O   O856      1.0  0.75960  0.42141  0.28995  1.0000
  O   O857      1.0  0.62915  0.42447  0.27830  1.0000
  Ti  Ti275     1.0  0.75674  0.48341  0.31684  1.0000
  Ti  Ti276     1.0  0.62935  0.41910  0.31630  1.0000
  O   O858      1.0  0.68163  0.48828  0.31212  1.0000
  O   O859      1.0  0.58238  0.48473  0.31821  1.0000
  O   O860      1.0  0.63564  0.42705  0.35651  1.0000
  O   O861      1.0  0.50675  0.42081  0.34151  1.0000
  Ti  Ti277     1.0  0.62618  0.49070  0.37893  1.0000
  Ti  Ti278     1.0  0.74806  0.42827  0.38461  1.0000
  O   O862      1.0  0.55243  0.48487  0.38617  1.0000
  O   O863      1.0  0.70175  0.48780  0.38055  1.0000
  O   O864      1.0  0.50054  0.42223  0.42207  1.0000
  O   O865      1.0  0.63714  0.42851  0.40615  1.0000
  Ti  Ti279     1.0  0.76251  0.49368  0.44721  1.0000
  Ti  Ti280     1.0  0.63170  0.42852  0.44282  1.0000
  O   O866      1.0  0.67583  0.48706  0.44901  1.0000
  O   O867      1.0  0.58074  0.49018  0.44675  1.0000
  O   O868      1.0  0.75736  0.43064  0.47137  1.0000
  O   O869      1.0  0.51161  0.05482  0.03481  1.0000
  Ti  Ti281     1.0  0.50788  0.11885  0.05952  1.0000
  Ti  Ti282     1.0  0.88040  0.05454  0.06439  1.0000
  O   O870      1.0  0.92657  0.11761  0.06062  1.0000
  O   O871      1.0  0.83200  0.11579  0.05646  1.0000
  O   O872      1.0  0.88077  0.05208  0.10024  1.0000
  O   O873      1.0  0.75843  0.04952  0.08567  1.0000
  Ti  Ti283     1.0  0.87762  0.11372  0.12442  1.0000
  Ti  Ti284     1.0  0.75310  0.05431  0.12443  1.0000
  O   O874      1.0  0.80154  0.11279  0.12426  1.0000
  O   O875      1.0  0.95310  0.11860  0.12598  1.0000
  O   O876      1.0  0.50168  0.05397  0.16564  1.0000
  O   O877      1.0  0.87402  0.04908  0.15070  1.0000
  Ti  Ti285     1.0  0.50372  0.11026  0.19076  1.0000
  Ti  Ti286     1.0  0.87398  0.05455  0.19110  1.0000
  O   O878      1.0  0.92541  0.11435  0.18956  1.0000
  O   O879      1.0  0.82602  0.11765  0.18590  1.0000
  O   O880      1.0  0.87524  0.05321  0.22839  1.0000
  O   O881      1.0  0.75216  0.05119  0.21364  1.0000
  Ti  Ti287     1.0  0.87404  0.11685  0.25111  1.0000
  Ti  Ti288     1.0  0.75104  0.05656  0.25414  1.0000
  O   O882      1.0  0.80242  0.11878  0.25494  1.0000
  O   O883      1.0  0.95502  0.11306  0.25455  1.0000
  O   O884      1.0  0.99980  0.04558  0.29387  1.0000
  O   O885      1.0  0.88169  0.05284  0.27880  1.0000
  Ti  Ti289     1.0  0.50658  0.10679  0.32179  1.0000
  Ti  Ti290     1.0  0.88036  0.04687  0.31726  1.0000
  O   O886      1.0  0.92669  0.11219  0.31861  1.0000
  O   O887      1.0  0.82881  0.11167  0.31767  1.0000
  O   O888      1.0  0.87668  0.04678  0.35858  1.0000
  O   O889      1.0  0.75847  0.04579  0.34290  1.0000
  Ti  Ti291     1.0  0.87763  0.11141  0.38017  1.0000
  Ti  Ti292     1.0  0.50828  0.04528  0.38226  1.0000
  O   O890      1.0  0.80415  0.11168  0.37881  1.0000
  O   O891      1.0  0.95170  0.11265  0.38210  1.0000
  O   O892      1.0  0.75199  0.04854  0.41906  1.0000
  O   O893      1.0  0.87647  0.04844  0.40807  1.0000
  Ti  Ti293     1.0  0.50453  0.11463  0.44749  1.0000
  Ti  Ti294     1.0  0.88239  0.04871  0.44390  1.0000
  O   O894      1.0  0.92551  0.11048  0.44889  1.0000
  O   O895      1.0  0.83017  0.11598  0.44688  1.0000
  O   O896      1.0  0.50486  0.05260  0.47222  1.0000
  O   O897      1.0  0.50868  0.17487  0.03438  1.0000
  Ti  Ti295     1.0  0.50755  0.23566  0.05589  1.0000
  Ti  Ti296     1.0  0.87950  0.17865  0.06287  1.0000
  O   O898      1.0  0.93115  0.23810  0.05785  1.0000
  O   O899      1.0  0.83404  0.24286  0.05828  1.0000
  O   O900      1.0  0.87743  0.18117  0.09772  1.0000
  O   O901      1.0  0.75662  0.17984  0.08569  1.0000
  Ti  Ti297     1.0  0.87845  0.24277  0.12520  1.0000
  Ti  Ti298     1.0  0.75369  0.17676  0.12549  1.0000
  O   O902      1.0  0.80313  0.23879  0.12592  1.0000
  O   O903      1.0  0.95650  0.24436  0.12160  1.0000
  O   O904      1.0  0.50235  0.17858  0.16462  1.0000
  O   O905      1.0  0.88098  0.17829  0.14891  1.0000
  Ti  Ti299     1.0  0.50247  0.24066  0.19080  1.0000
  Ti  Ti300     1.0  0.88274  0.17764  0.18929  1.0000
  O   O906      1.0  0.92596  0.24132  0.18808  1.0000
  O   O907      1.0  0.83041  0.23824  0.18575  1.0000
  O   O908      1.0  0.88110  0.18066  0.22775  1.0000
  O   O909      1.0  0.75610  0.17797  0.21443  1.0000
  Ti  Ti301     1.0  0.88442  0.24418  0.25260  1.0000
  Ti  Ti302     1.0  0.75514  0.18649  0.25122  1.0000
  O   O910      1.0  0.80536  0.24348  0.25385  1.0000
  O   O911      1.0  0.95578  0.24209  0.25392  1.0000
  O   O912      1.0  0.50404  0.17425  0.29259  1.0000
  O   O913      1.0  0.87677  0.17724  0.27764  1.0000
  Ti  Ti303     1.0  0.50886  0.23782  0.31867  1.0000
  Ti  Ti304     1.0  0.88307  0.17519  0.31466  1.0000
  O   O914      1.0  0.92840  0.23750  0.31598  1.0000
  O   O915      1.0  0.82926  0.23650  0.31797  1.0000
  O   O916      1.0  0.87813  0.17548  0.35759  1.0000
  O   O917      1.0  0.75184  0.17337  0.34198  1.0000
  Ti  Ti305     1.0  0.87544  0.23638  0.38063  1.0000
  Ti  Ti306     1.0  0.50470  0.17222  0.38411  1.0000
  O   O918      1.0  0.80263  0.23634  0.38131  1.0000
  O   O919      1.0  0.95124  0.23678  0.38167  1.0000
  O   O920      1.0  0.75548  0.17355  0.41848  1.0000
  O   O921      1.0  0.87407  0.17094  0.40847  1.0000
  Ti  Ti307     1.0  0.50558  0.24173  0.44775  1.0000
  Ti  Ti308     1.0  0.88003  0.17552  0.44352  1.0000
  O   O922      1.0  0.92944  0.23861  0.44270  1.0000
  O   O923      1.0  0.83273  0.24103  0.45112  1.0000
  O   O924      1.0  0.50447  0.17637  0.47050  1.0000
  O   O925      1.0  0.50852  0.30490  0.03448  1.0000
  Ti  Ti309     1.0  0.50435  0.36539  0.05694  1.0000
  Ti  Ti310     1.0  0.88115  0.30377  0.06283  1.0000
  O   O926      1.0  0.92946  0.36460  0.05817  1.0000
  O   O927      1.0  0.83398  0.36579  0.05734  1.0000
  O   O928      1.0  0.87882  0.30810  0.09849  1.0000
  O   O929      1.0  0.75030  0.30152  0.08345  1.0000
  Ti  Ti311     1.0  0.87781  0.36756  0.12540  1.0000
  Ti  Ti312     1.0  0.75586  0.30300  0.11939  1.0000
  O   O930      1.0  0.80018  0.36620  0.12413  1.0000
  O   O931      1.0  0.95437  0.36551  0.12337  1.0000
  O   O932      1.0  0.50919  0.30319  0.16385  1.0000
  O   O933      1.0  0.87548  0.30331  0.14783  1.0000
  Ti  Ti313     1.0  0.50715  0.36423  0.18466  1.0000
  Ti  Ti314     1.0  0.87406  0.30121  0.19042  1.0000
  O   O934      1.0  0.92742  0.36572  0.18899  1.0000
  O   O935      1.0  0.83145  0.36141  0.18904  1.0000
  O   O936      1.0  0.88094  0.30717  0.22938  1.0000
  O   O937      1.0  0.75130  0.30396  0.21400  1.0000
  Ti  Ti315     1.0  0.87670  0.36842  0.25690  1.0000
  Ti  Ti316     1.0  0.75651  0.30774  0.25379  1.0000
  O   O938      1.0  0.80230  0.36875  0.25267  1.0000
  O   O939      1.0  0.95457  0.36059  0.25442  1.0000
  O   O940      1.0  0.50599  0.30003  0.29350  1.0000
  O   O941      1.0  0.87820  0.30277  0.27835  1.0000
  Ti  Ti317     1.0  0.50531  0.36116  0.32110  1.0000
  Ti  Ti318     1.0  0.87882  0.29943  0.31769  1.0000
  O   O942      1.0  0.92718  0.36351  0.31934  1.0000
  O   O943      1.0  0.83103  0.36156  0.31936  1.0000
  O   O944      1.0  0.87966  0.29603  0.35743  1.0000
  O   O945      1.0  0.75398  0.29803  0.34271  1.0000
  Ti  Ti319     1.0  0.87250  0.36368  0.38262  1.0000
  Ti  Ti320     1.0  0.99808  0.29597  0.38550  1.0000
  O   O946      1.0  0.80379  0.36349  0.38110  1.0000
  O   O947      1.0  0.95393  0.35970  0.38298  1.0000
  O   O948      1.0  0.75406  0.30434  0.42147  1.0000
  O   O949      1.0  0.87157  0.29794  0.40796  1.0000
  Ti  Ti321     1.0  0.50273  0.36626  0.45071  1.0000
  Ti  Ti322     1.0  0.87922  0.30094  0.44380  1.0000
  O   O950      1.0  0.92820  0.36183  0.45106  1.0000
  O   O951      1.0  0.83043  0.36698  0.45058  1.0000
  O   O952      1.0  0.50399  0.29982  0.47242  1.0000
  O   O953      1.0  0.50616  0.42776  0.03456  1.0000
  Ti  Ti323     1.0  0.50823  0.49165  0.05513  1.0000
  Ti  Ti324     1.0  0.87948  0.43043  0.06165  1.0000
  O   O954      1.0  0.92868  0.49491  0.06078  1.0000
  O   O955      1.0  0.83140  0.49370  0.05792  1.0000
  O   O956      1.0  0.87482  0.43030  0.09708  1.0000
  O   O957      1.0  0.75718  0.42398  0.08513  1.0000
  Ti  Ti325     1.0  0.87544  0.49050  0.12722  1.0000
  Ti  Ti326     1.0  0.74797  0.42651  0.11978  1.0000
  O   O958      1.0  0.80001  0.48694  0.12589  1.0000
  O   O959      1.0  0.95650  0.49286  0.12372  1.0000
  O   O960      1.0  0.50576  0.43156  0.16234  1.0000
  O   O961      1.0  0.87634  0.42806  0.14950  1.0000
  Ti  Ti327     1.0  0.50046  0.49036  0.18690  1.0000
  Ti  Ti328     1.0  0.88231  0.42510  0.19308  1.0000
  O   O962      1.0  0.92743  0.49331  0.19100  1.0000
  O   O963      1.0  0.83030  0.49132  0.18976  1.0000
  O   O964      1.0  0.87373  0.42863  0.22869  1.0000
  O   O965      1.0  0.75169  0.42642  0.21383  1.0000
  Ti  Ti329     1.0  0.87870  0.49172  0.25435  1.0000
  Ti  Ti330     1.0  0.75010  0.43111  0.25139  1.0000
  O   O966      1.0  0.80247  0.49023  0.25155  1.0000
  O   O967      1.0  0.95417  0.48734  0.25307  1.0000
  O   O968      1.0  0.50562  0.41972  0.29314  1.0000
  O   O969      1.0  0.87807  0.42903  0.27941  1.0000
  Ti  Ti331     1.0  0.50779  0.47886  0.31503  1.0000
  Ti  Ti332     1.0  0.88449  0.42421  0.32047  1.0000
  O   O970      1.0  0.92677  0.48389  0.31790  1.0000
  O   O971      1.0  0.83176  0.48684  0.31804  1.0000
  O   O972      1.0  0.88072  0.42391  0.35739  1.0000
  O   O973      1.0  0.75359  0.42581  0.33976  1.0000
  Ti  Ti333     1.0  0.87999  0.48422  0.38241  1.0000
  Ti  Ti334     1.0  0.99691  0.42241  0.38685  1.0000
  O   O974      1.0  0.80063  0.48246  0.38414  1.0000
  O   O975      1.0  0.95382  0.48933  0.38335  1.0000
  O   O976      1.0  0.75091  0.42492  0.42110  1.0000
  O   O977      1.0  0.87404  0.42186  0.40773  1.0000
  Ti  Ti335     1.0  0.50494  0.49532  0.44997  1.0000
  Ti  Ti336     1.0  0.87758  0.42422  0.45423  1.0000
  O   O978      1.0  0.92847  0.48933  0.44913  1.0000
  O   O979      1.0  0.83139  0.48737  0.44523  1.0000
  O   O980      1.0  0.50881  0.43029  0.47253  1.0000
  O   O981      1.0  0.63028  0.05515  0.02081  1.0000
  H   H617      1.0  0.66027  0.03394  0.01310  1.0000
  H   H618      1.0  0.59826  0.04839  0.00893  1.0000
  O   O982      1.0  0.63353  0.04257  0.48742  1.0000
  H   H619      1.0  0.64002  0.00248  0.49084  1.0000
  H   H620      1.0  0.66211  0.06775  0.49845  1.0000
  O   O983      1.0  0.62818  0.17180  0.01934  1.0000
  H   H621      1.0  0.66366  0.17933  0.01474  1.0000
  H   H622      1.0  0.63491  0.12902  0.01708  1.0000
  O   O984      1.0  0.62220  0.17733  0.49103  1.0000
  H   H623      1.0  0.65421  0.16972  0.50020  1.0000
  H   H624      1.0  0.59625  0.15734  0.50150  1.0000
  O   O985      1.0  0.65016  0.31273  0.01814  1.0000
  H   H625      1.0  0.68694  0.30767  0.02034  1.0000
  H   H626      1.0  0.63330  0.28637  0.00579  1.0000
  O   O986      1.0  0.64052  0.29715  0.48633  1.0000
  H   H627      1.0  0.62978  0.25722  0.49165  1.0000
  H   H628      1.0  0.67886  0.29579  0.48877  1.0000
  O   O987      1.0  0.62983  0.42272  0.02004  1.0000
  H   H629      1.0  0.59420  0.43155  0.01471  1.0000
  H   H630      1.0  0.63767  0.38111  0.01507  1.0000
  O   O988      1.0  0.61269  0.43544  0.48722  1.0000
  H   H631      1.0  0.62981  0.40623  0.49984  1.0000
  H   H632      1.0  0.57775  0.42399  0.48920  1.0000
  O   O989      1.0  0.88610  0.05176  0.01881  1.0000
  H   H633      1.0  0.91391  0.06861  0.00780  1.0000
  H   H634      1.0  0.85377  0.07196  0.01321  1.0000
  O   O990      1.0  0.86803  0.04401  0.48955  1.0000
  H   H635      1.0  0.83423  0.06215  0.49406  1.0000
  H   H636      1.0  0.86655  0.00469  0.49590  1.0000
  O   O991      1.0  0.87661  0.18511  0.01858  1.0000
  H   H637      1.0  0.90852  0.16924  0.01261  1.0000
  H   H638      1.0  0.88241  0.22628  0.01581  1.0000
  O   O992      1.0  0.89184  0.17915  0.48892  1.0000
  H   H639      1.0  0.92406  0.16521  0.49532  1.0000
  H   H640      1.0  0.86493  0.15635  0.49671  1.0000
  O   O993      1.0  0.86598  0.29575  0.01708  1.0000
  H   H641      1.0  0.89510  0.32133  0.01100  1.0000
  H   H642      1.0  0.83425  0.31744  0.01138  1.0000
  O   O994      1.0  0.88869  0.29758  0.49324  1.0000
  H   H643      1.0  0.91445  0.32437  0.49995  1.0000
  H   H644      1.0  0.76937  0.37192  0.52425  1.0000
  O   O995      1.0  0.88745  0.44319  0.02035  1.0000
  H   H645      1.0  0.89164  0.48419  0.01635  1.0000
  H   H646      1.0  0.91935  0.42354  0.01500  1.0000
  O   O996      1.0  0.87732  0.43450  0.48983  1.0000
  H   H647      1.0  0.91046  0.41769  0.49843  1.0000
  H   H648      1.0  0.90777  0.26205  0.49174  1.0000
  H   H649      1.0  0.84568  0.41321  0.93963  1.0000
  H   H650      1.0  0.87015  0.35733  0.92636  1.0000
  O   O997      1.0  0.84148  0.38024  0.92670  1.0000
  H   H651      1.0  0.72907  0.42342  0.87993  1.0000
  H   H652      1.0  0.71216  0.39386  0.85455  1.0000
  O   O998      1.0  0.70265  0.39750  0.87325  1.0000
  H   H653      1.0  0.80943  0.10601  0.59746  1.0000
  H   H654      1.0  0.77328  0.11575  0.62216  1.0000
  O   O999      1.0  0.77426  0.10736  0.60339  1.0000
  H   H655      1.0  0.58662  0.28525  0.57821  1.0000
  H   H656      1.0  0.59291  0.30442  0.60810  1.0000
  O   O1000     1.0  0.57013  0.28127  0.59593  1.0000
  H   H657      1.0  0.70175  0.18042  0.83307  1.0000
  H   H658      1.0  0.72528  0.23662  0.84310  1.0000
  O   O1001     1.0  0.70468  0.22077  0.82864  1.0000
  H   H659      1.0  0.60300  0.34364  0.65461  1.0000
  H   H660      1.0  0.60107  0.38111  0.62863  1.0000
  O   O1002     1.0  0.60018  0.34176  0.63486  1.0000
  H   H661      1.0  0.99292  0.17631  0.82350  1.0000
  H   H662      1.0  0.95245  0.12792  0.82044  1.0000
  O   O1003     1.0  0.95583  0.16806  0.82432  1.0000
  H   H663      1.0  0.73526  0.02337  0.79904  1.0000
  H   H664      1.0  0.67238  0.03555  0.79989  1.0000
  O   O1004     1.0  0.70352  0.02738  0.81071  1.0000
  H   H665      1.0  0.75886  0.03005  0.56903  1.0000
  H   H666      1.0  0.74001  0.09135  0.56893  1.0000
  O   O1005     1.0  0.73113  0.05498  0.56168  1.0000
  H   H667      1.0  0.99999  0.42744  0.99372  1.0000
  H   H668      1.0  0.53097  0.40328  0.96851  1.0000
  O   O1006     1.0  0.51666  0.43799  0.97744  1.0000
  H   H669      1.0  0.72400  0.28550  0.97715  1.0000
  H   H670      1.0  0.74986  0.31523  0.95213  1.0000
  O   O1007     1.0  0.73363  0.32410  0.96961  1.0000
  H   H671      1.0  0.74020  0.00714  0.93542  1.0000
  H   H672      1.0  0.70172  0.45931  0.92733  1.0000
  O   O1008     1.0  0.71377  0.49695  0.92240  1.0000
  H   H673      1.0  0.90857  0.04260  0.62862  1.0000
  H   H674      1.0  0.85041  0.02596  0.63700  1.0000
  O   O1009     1.0  0.87783  0.05596  0.63634  1.0000
  H   H675      1.0  0.76697  0.44447  0.58617  1.0000
  H   H676      1.0  0.75304  0.42804  0.61273  1.0000
  O   O1010     1.0  0.74879  0.41514  0.59542  1.0000
  H   H677      1.0  0.92454  0.46782  0.84951  1.0000
  H   H678      1.0  0.92933  0.42724  0.87336  1.0000
  O   O1011     1.0  0.93707  0.46705  0.86885  1.0000
  H   H679      1.0  0.57874  0.22837  0.82810  1.0000
  H   H680      1.0  0.57804  0.17211  0.84099  1.0000
  O   O1012     1.0  0.56866  0.19031  0.82404  1.0000
  H   H681      1.0  0.79972  0.44795  0.54739  1.0000
  H   H682      1.0  0.85264  0.44914  0.56051  1.0000
  O   O1013     1.0  0.82213  0.47175  0.55792  1.0000
  H   H683      1.0  0.65190  0.17406  0.63610  1.0000
  H   H684      1.0  0.67567  0.11476  0.64489  1.0000
  O   O1014     1.0  0.67196  0.15554  0.65098  1.0000
  H   H685      1.0  0.86420  0.42677  0.69052  1.0000
  H   H686      1.0  0.92407  0.44566  0.69310  1.0000
  O   O1015     1.0  0.88964  0.45273  0.69905  1.0000
  H   H687      1.0  0.87657  0.35259  0.62473  1.0000
  H   H688      1.0  0.81428  0.34984  0.62816  1.0000
  O   O1016     1.0  0.84352  0.32785  0.62338  1.0000
  H   H689      1.0  0.52081  0.28392  0.50731  1.0000
  H   H690      1.0  0.98803  0.28822  0.53458  1.0000
  O   O1017     1.0  0.52054  0.27774  0.52657  1.0000
  H   H691      1.0  0.83363  0.10406  0.92329  1.0000
  H   H692      1.0  0.89119  0.09177  0.92585  1.0000
  O   O1018     1.0  0.86143  0.09680  0.93713  1.0000
  H   H693      1.0  0.74953  0.01959  0.97737  1.0000
  H   H694      1.0  0.78984  0.06824  0.97311  1.0000
  O   O1019     1.0  0.77601  0.03369  0.96434  1.0000
  H   H695      1.0  0.78365  0.11715  0.00847  1.0000
  H   H696      1.0  0.82666  0.15401  0.99590  1.0000
  O   O1020     1.0  0.80971  0.11941  0.99437  1.0000
  H   H697      1.0  0.52986  0.39347  0.69504  1.0000
  H   H698      1.0  0.51160  0.43837  0.71568  1.0000
  O   O1021     1.0  0.51054  0.43027  0.69619  1.0000
  H   H699      1.0  0.58694  0.47048  0.73951  1.0000
  H   H700      1.0  0.64410  0.44871  0.73671  1.0000
  O   O1022     1.0  0.62349  0.48229  0.73943  1.0000
  H   H701      1.0  0.72101  0.07147  0.49548  1.0000
  H   H702      1.0  0.71920  0.07347  0.52726  1.0000
  O   O1023     1.0  0.70256  0.09067  0.51182  1.0000
  H   H703      1.0  0.77454  0.40714  0.71417  1.0000
  H   H704      1.0  0.81736  0.37441  0.73422  1.0000
  O   O1024     1.0  0.77945  0.38348  0.73117  1.0000
  H   H705      1.0  0.57544  0.06495  0.58990  1.0000
  H   H706      1.0  0.55241  0.10367  0.60873  1.0000
  O   O1025     1.0  0.54201  0.07349  0.59745  1.0000
  H   H707      1.0  0.92087  0.05790  0.51089  1.0000
  H   H708      1.0  0.97964  0.06202  0.50564  1.0000
  O   O1026     1.0  0.95435  0.06875  0.52016  1.0000
  H   H709      1.0  0.75787  0.16869  0.49024  1.0000
  H   H710      1.0  0.83448  0.30352  0.51372  1.0000
  O   O1027     1.0  0.80112  0.30837  0.52339  1.0000
  H   H711      1.0  0.98146  0.22600  0.96553  1.0000
  H   H712      1.0  0.50057  0.16714  0.97643  1.0000
  O   O1028     1.0  0.51081  0.20211  0.96783  1.0000
  H   H713      1.0  0.98575  0.24106  0.74744  1.0000
  H   H714      1.0  0.94949  0.25056  0.72417  1.0000
  O   O1029     1.0  0.95234  0.22774  0.74042  1.0000
  H   H715      1.0  0.67595  0.18433  0.68684  1.0000
  H   H716      1.0  0.71158  0.22673  0.70141  1.0000
  O   O1030     1.0  0.68204  0.19734  0.70523  1.0000
  H   H717      1.0  0.69264  0.16044  0.73334  1.0000
  H   H718      1.0  0.72438  0.13028  0.75662  1.0000
  O   O1031     1.0  0.69253  0.15103  0.75166  1.0000
  H   H719      1.0  0.61633  0.19735  0.88536  1.0000
  H   H720      1.0  0.63103  0.21445  0.91325  1.0000
  O   O1032     1.0  0.63049  0.22909  0.89530  1.0000
  H   H721      1.0  0.76999  0.44515  0.83289  1.0000
  H   H722      1.0  0.77831  0.48567  0.85561  1.0000
  O   O1033     1.0  0.79488  0.47517  0.83966  1.0000
  H   H723      1.0  0.67307  0.33652  0.59379  1.0000
  H   H724      1.0  0.68302  0.39857  0.58775  1.0000
  O   O1034     1.0  0.65971  0.36716  0.58262  1.0000
  H   H725      1.0  0.70575  0.20834  0.58116  1.0000
  H   H726      1.0  0.65998  0.23012  0.56586  1.0000
  O   O1035     1.0  0.68192  0.19754  0.56758  1.0000
  H   H727      1.0  0.69224  0.05771  0.61159  1.0000
  H   H728      1.0  0.65691  0.01994  0.62655  1.0000
  O   O1036     1.0  0.68230  0.04835  0.62909  1.0000
  H   H729      1.0  0.98700  0.14019  0.69382  1.0000
  H   H730      1.0  0.52980  0.19446  0.69720  1.0000
  O   O1037     1.0  0.51813  0.16101  0.68506  1.0000
  H   H731      1.0  0.62953  0.38235  0.87033  1.0000
  H   H732      1.0  0.57415  0.40711  0.86244  1.0000
  O   O1038     1.0  0.59318  0.37281  0.86770  1.0000
  H   H733      1.0  0.55631  0.32389  0.96141  1.0000
  H   H734      1.0  0.56091  0.33123  0.93139  1.0000
  O   O1039     1.0  0.56786  0.35427  0.94814  1.0000
  H   H735      1.0  0.80566  0.30526  0.54297  1.0000
  H   H736      1.0  0.77164  0.42482  0.50833  1.0000
  O   O1040     1.0  0.75956  0.41221  0.52563  1.0000
  H   H737      1.0  0.82774  0.30523  0.59184  1.0000
  H   H738      1.0  0.85748  0.26167  0.57549  1.0000
  O   O1041     1.0  0.82792  0.28682  0.57530  1.0000
  H   H739      1.0  0.90552  0.26353  0.90194  1.0000
  H   H740      1.0  0.95098  0.30531  0.89963  1.0000
  O   O1042     1.0  0.92707  0.28744  0.91149  1.0000
  H   H741      1.0  0.60323  0.17100  0.79494  1.0000
  H   H742      1.0  0.63765  0.15879  0.76875  1.0000
  O   O1043     1.0  0.60232  0.16285  0.77631  1.0000
  H   H743      1.0  0.60927  0.12065  0.66330  1.0000
  H   H744      1.0  0.56227  0.12033  0.68208  1.0000
  O   O1044     1.0  0.58684  0.09379  0.67302  1.0000
  H   H745      1.0  0.54949  0.01639  0.80199  1.0000
  H   H746      1.0  0.98584  0.02086  0.80754  1.0000
  O   O1045     1.0  0.51868  0.00229  0.81166  1.0000
  H   H747      1.0  0.59954  0.45663  0.60819  1.0000
  H   H748      1.0  0.58577  0.47079  0.63727  1.0000
  O   O1046     1.0  0.61514  0.45722  0.62517  1.0000
  H   H749      1.0  0.88033  0.42564  0.75824  1.0000
  H   H750      1.0  0.89971  0.45018  0.78479  1.0000
  O   O1047     1.0  0.88133  0.46025  0.76878  1.0000
  H   H751      1.0  0.85243  0.27676  0.65168  1.0000
  H   H752      1.0  0.86592  0.21586  0.65879  1.0000
  O   O1048     1.0  0.85423  0.25117  0.66657  1.0000
  H   H753      1.0  0.80314  0.07634  0.82196  1.0000
  H   H754      1.0  0.81323  0.10359  0.79472  1.0000
  O   O1049     1.0  0.82887  0.09673  0.81259  1.0000
  H   H755      1.0  0.92990  0.13703  0.72209  1.0000
  H   H756      1.0  0.90507  0.09921  0.70079  1.0000
  O   O1050     1.0  0.93970  0.11088  0.70873  1.0000
  H   H757      1.0  0.62482  0.23451  0.71316  1.0000
  H   H758      1.0  0.57478  0.24999  0.72954  1.0000
  O   O1051     1.0  0.58804  0.25056  0.71131  1.0000
  H   H759      1.0  0.70645  0.42446  0.80827  1.0000
  H   H760      1.0  0.73853  0.36740  0.80995  1.0000
  O   O1052     1.0  0.71712  0.39389  0.82017  1.0000
  H   H761      1.0  0.55068  0.01244  0.98179  1.0000
  H   H762      1.0  0.58056  0.04118  0.95972  1.0000
  O   O1053     1.0  0.57665  0.04197  0.97959  1.0000
  H   H763      1.0  0.68333  0.46672  0.98488  1.0000
  H   H764      1.0  0.72158  0.45987  0.00822  1.0000
  O   O1054     1.0  0.70673  0.48852  0.99619  1.0000
  H   H765      1.0  0.68184  0.26145  0.88279  1.0000
  H   H766      1.0  0.70879  0.32281  0.87980  1.0000
  O   O1055     1.0  0.71404  0.28140  0.87744  1.0000
  H   H767      1.0  0.98533  0.08648  0.99756  1.0000
  H   H768      1.0  0.94711  0.07878  0.97580  1.0000
  O   O1056     1.0  0.95224  0.10151  0.99071  1.0000
  H   H769      1.0  0.89835  0.35025  0.72484  1.0000
  H   H770      1.0  0.87422  0.31484  0.74817  1.0000
  O   O1057     1.0  0.87359  0.35085  0.73912  1.0000
  H   H771      1.0  0.98069  0.39044  0.50092  1.0000
  H   H772      1.0  0.95179  0.39004  0.53091  1.0000
  O   O1058     1.0  0.95389  0.37194  0.51284  1.0000
  H   H773      1.0  0.81938  0.23391  0.94838  1.0000
  H   H774      1.0  0.84606  0.17520  0.95210  1.0000
  O   O1059     1.0  0.83650  0.21088  0.96203  1.0000
  H   H775      1.0  0.63721  0.12632  0.86090  1.0000
  H   H776      1.0  0.58188  0.10267  0.87238  1.0000
  O   O1060     1.0  0.60089  0.13783  0.86736  1.0000
  H   H777      1.0  0.96049  0.33455  0.60388  1.0000
  H   H778      1.0  0.51032  0.30645  0.59295  1.0000
  O   O1061     1.0  0.97512  0.31969  0.58772  1.0000
  H   H779      1.0  0.89255  0.07118  0.80943  1.0000
  H   H780      1.0  0.93204  0.06675  0.78670  1.0000
  O   O1062     1.0  0.92812  0.07197  0.80586  1.0000
  H   H781      1.0  0.89783  0.22867  0.76134  1.0000
  H   H782      1.0  0.85440  0.21947  0.78555  1.0000
  O   O1063     1.0  0.86075  0.23464  0.76797  1.0000
  H   H783      1.0  0.93467  0.33139  0.97979  1.0000
  H   H784      1.0  0.96706  0.33392  0.00408  1.0000
  O   O1064     1.0  0.94024  0.35625  0.99567  1.0000
  H   H785      1.0  0.54647  0.07448  0.52980  1.0000
  H   H786      1.0  0.57468  0.03542  0.50905  1.0000
  O   O1065     1.0  0.55421  0.03684  0.52455  1.0000
  H   H787      1.0  0.61465  0.37259  0.69480  1.0000
  H   H788      1.0  0.58662  0.31211  0.69936  1.0000
  O   O1066     1.0  0.58406  0.34781  0.68834  1.0000
  H   H789      1.0  0.54871  0.01546  0.87740  1.0000
  H   H790      1.0  0.51829  0.05632  0.89500  1.0000
  O   O1067     1.0  0.55432  0.04875  0.88990  1.0000
  H   H791      1.0  0.86886  0.12394  0.63294  1.0000
  H   H792      1.0  0.87646  0.18349  0.61765  1.0000
  O   O1068     1.0  0.87873  0.16451  0.63434  1.0000
  H   H793      1.0  0.71567  0.19757  0.97167  1.0000
  H   H794      1.0  0.73462  0.21191  0.99887  1.0000
  O   O1069     1.0  0.70861  0.22116  0.98707  1.0000
  H   H795      1.0  0.57273  0.33850  0.89173  1.0000
  H   H796      1.0  0.58419  0.28128  0.90205  1.0000
  O   O1070     1.0  0.55650  0.30755  0.90231  1.0000
  H   H797      1.0  0.91444  0.01219  0.75289  1.0000
  H   H798      1.0  0.93714  0.06416  0.73682  1.0000
  O   O1071     1.0  0.94153  0.03957  0.75216  1.0000
  H   H799      1.0  0.71118  0.10272  0.94407  1.0000
  H   H800      1.0  0.66802  0.14075  0.94003  1.0000
  O   O1072     1.0  0.70451  0.14163  0.94394  1.0000
  H   H801      1.0  0.81196  0.35288  0.78115  1.0000
  H   H802      1.0  0.79434  0.29050  0.78398  1.0000
  O   O1073     1.0  0.79963  0.32535  0.79337  1.0000
  H   H803      1.0  0.96752  0.02471  0.54894  1.0000
  H   H804      1.0  0.51144  0.48677  0.56169  1.0000
  O   O1074     1.0  0.97404  0.49754  0.56231  1.0000
  H   H805      1.0  0.73891  0.21803  0.79653  1.0000
  H   H806      1.0  0.73233  0.20605  0.76761  1.0000
  O   O1075     1.0  0.75498  0.22551  0.77980  1.0000
  H   H807      1.0  0.63802  0.18312  0.59565  1.0000
  H   H808      1.0  0.59007  0.20802  0.60550  1.0000
  O   O1076     1.0  0.61505  0.17689  0.60976  1.0000
  H   H809      1.0  0.80803  0.47175  0.77115  1.0000
  H   H810      1.0  0.75612  0.46157  0.75548  1.0000
  O   O1077     1.0  0.77237  0.48400  0.76952  1.0000
  H   H811      1.0  0.61314  0.32493  0.84652  1.0000
  H   H812      1.0  0.65279  0.28003  0.83507  1.0000
  O   O1078     1.0  0.61828  0.29707  0.83220  1.0000
  H   H813      1.0  0.51687  0.16066  0.50384  1.0000
  H   H814      1.0  0.52794  0.19622  0.52936  1.0000
  O   O1079     1.0  0.53981  0.16204  0.51977  1.0000
  H   H815      1.0  0.91929  0.49102  0.95884  1.0000
  H   H816      1.0  0.97555  0.49464  0.96226  1.0000
  O   O1080     1.0  0.94754  0.01905  0.95499  1.0000
  H   H817      1.0  0.93317  0.19080  0.58179  1.0000
  H   H818      1.0  0.94133  0.25390  0.58809  1.0000
  O   O1081     1.0  0.91397  0.22697  0.58403  1.0000
  H   H819      1.0  0.62419  0.31452  0.54131  1.0000
  H   H820      1.0  0.57759  0.27476  0.54198  1.0000
  O   O1082     1.0  0.61061  0.28072  0.55111  1.0000
  H   H821      1.0  0.86988  0.06663  0.66986  1.0000
  H   H822      1.0  0.86898  0.03215  0.69666  1.0000
  O   O1083     1.0  0.85729  0.06804  0.68883  1.0000
  H   H823      1.0  0.77375  0.06480  0.88653  1.0000
  H   H824      1.0  0.72875  0.02598  0.89317  1.0000
  O   O1084     1.0  0.74807  0.04051  0.87773  1.0000
  H   H825      1.0  0.50136  0.19274  0.65272  1.0000
  H   H826      1.0  0.96063  0.20319  0.62827  1.0000
  O   O1085     1.0  0.99129  0.21743  0.63738  1.0000
  H   H827      1.0  0.69100  0.38222  0.96279  1.0000
  H   H828      1.0  0.63221  0.38915  0.95667  1.0000
  O   O1086     1.0  0.66543  0.41151  0.95622  1.0000
  H   H829      1.0  0.77554  0.25258  0.59486  1.0000
  H   H830      1.0  0.76185  0.19723  0.61127  1.0000
  O   O1087     1.0  0.74892  0.23327  0.60386  1.0000
  H   H831      1.0  0.56907  0.28414  0.76908  1.0000
  H   H832      1.0  0.57289  0.21892  0.76835  1.0000
  O   O1088     1.0  0.55158  0.25069  0.76269  1.0000
  H   H833      1.0  0.97639  0.01666  0.60241  1.0000
  H   H834      1.0  0.98608  0.01786  0.63341  1.0000
  O   O1089     1.0  0.96080  0.00753  0.61955  1.0000
  H   H835      1.0  0.71997  0.06176  0.70509  1.0000
  H   H836      1.0  0.77644  0.07831  0.70418  1.0000
  O   O1090     1.0  0.75390  0.04841  0.70985  1.0000
  H   H837      1.0  0.79605  0.11582  0.75020  1.0000
  H   H838      1.0  0.77668  0.05485  0.76168  1.0000
  O   O1091     1.0  0.78008  0.09735  0.76545  1.0000
  H   H839      1.0  0.54087  0.29544  0.00872  1.0000
  H   H840      1.0  0.54450  0.24434  0.98885  1.0000
  O   O1092     1.0  0.56168  0.27958  0.99319  1.0000
  H   H841      1.0  0.88177  0.18882  0.87887  1.0000
  H   H842      1.0  0.84744  0.22840  0.86117  1.0000
  O   O1093     1.0  0.85248  0.21760  0.87983  1.0000
  H   H843      1.0  0.53078  0.48320  0.84217  1.0000
  H   H844      1.0  0.99832  0.46839  0.86598  1.0000
  O   O1094     1.0  0.53595  0.46840  0.86055  1.0000
  H   H845      1.0  0.83980  0.16799  0.82018  1.0000
  H   H846      1.0  0.89003  0.20456  0.82031  1.0000
  O   O1095     1.0  0.85323  0.20851  0.82069  1.0000
  H   H847      1.0  0.91566  0.31973  0.81159  1.0000
  H   H848      1.0  0.85170  0.32416  0.80895  1.0000
  O   O1096     1.0  0.88530  0.34114  0.81655  1.0000
  H   H849      1.0  0.87217  0.35361  0.86424  1.0000
  H   H850      1.0  0.86035  0.38530  0.89059  1.0000
  O   O1097     1.0  0.88716  0.36994  0.87974  1.0000
  H   H851      1.0  0.59855  0.04154  0.91684  1.0000
  H   H852      1.0  0.65174  0.03617  0.93033  1.0000
  O   O1098     1.0  0.61606  0.05029  0.93258  1.0000
  H   H853      1.0  0.71509  0.08823  0.85624  1.0000
  H   H854      1.0  0.69296  0.08414  0.82857  1.0000
  O   O1099     1.0  0.69074  0.11144  0.84364  1.0000
  H   H855      1.0  0.58935  0.12941  0.93172  1.0000
  H   H856      1.0  0.56678  0.18179  0.94541  1.0000
  O   O1100     1.0  0.59831  0.16757  0.93706  1.0000
  H   H857      1.0  0.89585  0.09688  0.57322  1.0000
  H   H858      1.0  0.86367  0.04649  0.56528  1.0000
  O   O1101     1.0  0.85892  0.08590  0.56920  1.0000
  H   H859      1.0  0.52718  0.34303  0.64395  1.0000
  H   H860      1.0  0.99308  0.29325  0.64785  1.0000
  O   O1102     1.0  0.99460  0.33372  0.65284  1.0000
  H   H861      1.0  0.50338  0.36775  0.79797  1.0000
  H   H862      1.0  0.51340  0.43269  0.79737  1.0000
  O   O1103     1.0  0.51678  0.39789  0.78639  1.0000
  H   H863      1.0  0.77741  0.30385  0.70822  1.0000
  H   H864      1.0  0.79896  0.26062  0.68956  1.0000
  O   O1104     1.0  0.77100  0.26487  0.70247  1.0000
  H   H865      1.0  0.85741  0.46302  0.83059  1.0000
  H   H866      1.0  0.89139  0.41015  0.82102  1.0000
  O   O1105     1.0  0.89205  0.45264  0.82237  1.0000
  H   H867      1.0  0.83686  0.12028  0.54148  1.0000
  H   H868      1.0  0.79100  0.15823  0.52865  1.0000
  O   O1106     1.0  0.81968  0.13205  0.52484  1.0000
  H   H869      1.0  0.75986  0.01922  0.63244  1.0000
  H   H870      1.0  0.77945  0.47740  0.65387  1.0000
  O   O1107     1.0  0.78635  0.48907  0.63590  1.0000
  H   H871      1.0  0.61804  0.33513  0.79755  1.0000
  H   H872      1.0  0.57874  0.37378  0.78329  1.0000
  O   O1108     1.0  0.60764  0.34834  0.78091  1.0000
  H   H873      1.0  0.52038  0.42673  0.75930  1.0000
  H   H874      1.0  0.99729  0.48440  0.75124  1.0000
  O   O1109     1.0  0.52158  0.45725  0.74532  1.0000
  H   H875      1.0  0.96308  0.11485  0.54906  1.0000
  H   H876      1.0  0.99179  0.10367  0.57483  1.0000
  O   O1110     1.0  0.96011  0.11994  0.56778  1.0000
  H   H877      1.0  0.62336  0.05533  0.68836  1.0000
  H   H878      1.0  0.64235  0.01708  0.71079  1.0000
  O   O1111     1.0  0.65169  0.02902  0.69335  1.0000
  H   H879      1.0  0.66135  0.42312  0.65764  1.0000
  H   H880      1.0  0.65721  0.46479  0.68089  1.0000
  O   O1112     1.0  0.67491  0.42904  0.67475  1.0000
  H   H881      1.0  0.65757  0.37353  0.75230  1.0000
  H   H882      1.0  0.71078  0.36981  0.73622  1.0000
  O   O1113     1.0  0.67530  0.38047  0.73534  1.0000
  H   H883      1.0  0.83364  0.19435  0.74760  1.0000
  H   H884      1.0  0.79695  0.20096  0.72369  1.0000
  O   O1114     1.0  0.82067  0.17346  0.73194  1.0000
  H   H885      1.0  0.53294  0.37741  0.57361  1.0000
  H   H886      1.0  0.57893  0.39538  0.55416  1.0000
  O   O1115     1.0  0.54647  0.40656  0.56206  1.0000
  H   H887      1.0  0.75114  0.15395  0.91330  1.0000
  H   H888      1.0  0.80324  0.16783  0.89706  1.0000
  O   O1116     1.0  0.77748  0.14050  0.90181  1.0000
  H   H889      1.0  0.93968  0.02450  0.89144  1.0000
  H   H890      1.0  0.94893  0.03002  0.92269  1.0000
  O   O1117     1.0  0.94776  0.05148  0.90532  1.0000
  H   H891      1.0  0.90268  0.28774  0.68509  1.0000
  H   H892      1.0  0.95547  0.32838  0.68382  1.0000
  O   O1118     1.0  0.93151  0.30962  0.69495  1.0000
  H   H893      1.0  0.91285  0.38158  0.57121  1.0000
  H   H894      1.0  0.94229  0.43871  0.56391  1.0000
  O   O1119     1.0  0.91448  0.41147  0.55831  1.0000
  H   H895      1.0  0.56030  0.02873  0.66414  1.0000
  H   H896      1.0  0.53095  0.47259  0.67145  1.0000
  O   O1120     1.0  0.54674  0.49503  0.65637  1.0000
  H   H897      1.0  0.82696  0.49467  0.96278  1.0000
  H   H898      1.0  0.84092  0.43254  0.97581  1.0000
  O   O1121     1.0  0.85347  0.46071  0.96277  1.0000
  H   H899      1.0  0.99467  0.29168  0.82999  1.0000
  H   H900      1.0  0.99352  0.27070  0.80001  1.0000
  O   O1122     1.0  0.98789  0.30118  0.81231  1.0000
  H   H901      1.0  0.73412  0.44089  0.68534  1.0000
  H   H902      1.0  0.76866  0.48339  0.69844  1.0000
  O   O1123     1.0  0.77091  0.44744  0.68898  1.0000
  H   H903      1.0  0.74669  0.16072  0.65607  1.0000
  H   H904      1.0  0.80603  0.17807  0.65829  1.0000
  O   O1124     1.0  0.78129  0.14722  0.65871  1.0000
  O   O1125     1.0  0.61028  0.04251  0.78519  1.0000
  H   H905      1.0  0.60345  0.08352  0.78120  1.0000
  H   H906      1.0  0.61497  0.02757  0.76783  1.0000
  O   O1126     1.0  0.99932  0.26953  0.86613  1.0000
  H   H907      1.0  0.52377  0.27878  0.88005  1.0000
  H   H908      1.0  0.98246  0.23321  0.86674  1.0000
  O   O1127     1.0  0.92868  0.14218  0.87775  1.0000
  H   H909      1.0  0.93208  0.10388  0.88599  1.0000
  H   H910      1.0  0.94954  0.14251  0.86065  1.0000
  O   O1128     1.0  0.92970  0.38548  0.62455  1.0000
  H   H911      1.0  0.95383  0.37079  0.63762  1.0000
  H   H912      1.0  0.93691  0.42473  0.61887  1.0000
  O   O1129     1.0  0.92559  0.27994  0.96154  1.0000
  H   H913      1.0  0.89178  0.26238  0.96653  1.0000
  H   H914      1.0  0.93150  0.28839  0.94258  1.0000
  O   O1130     1.0  0.74273  0.21073  0.52414  1.0000
  H   H915      1.0  0.71869  0.21008  0.53904  1.0000
  H   H916      1.0  0.75429  0.24806  0.52148  1.0000
  O   O1131     1.0  0.78255  0.28665  0.92803  1.0000
  H   H917      1.0  0.76591  0.28345  0.91155  1.0000
  H   H918      1.0  0.80328  0.32061  0.92683  1.0000
  O   O1132     1.0  0.65965  0.38087  0.53221  1.0000
  H   H919      1.0  0.66696  0.36691  0.55015  1.0000
  H   H920      1.0  0.68825  0.40810  0.53129  1.0000
  O   O1133     1.0  0.80726  0.36995  0.99478  1.0000
  H   H921      1.0  0.79565  0.39459  0.00949  1.0000
  H   H922      1.0  0.77718  0.35335  0.98618  1.0000
  O   O1134     1.0  0.61991  0.02790  0.57027  1.0000
  H   H923      1.0  0.65229  0.03929  0.56261  1.0000
  H   H924      1.0  0.60294  0.01885  0.55405  1.0000
  O   O1135     1.0  0.75334  0.55487  0.03467  1.0000
  Ti  Ti337     1.0  0.75526  0.61982  0.06201  1.0000
  Ti  Ti338     1.0  0.63140  0.55475  0.06375  1.0000
  O   O1136     1.0  0.67554  0.62019  0.06189  1.0000
  O   O1137     1.0  0.58061  0.61680  0.06041  1.0000
  O   O1138     1.0  0.62858  0.55272  0.10031  1.0000
  O   O1139     1.0  0.50628  0.55590  0.08559  1.0000
  Ti  Ti339     1.0  0.62430  0.62122  0.12596  1.0000
  Ti  Ti340     1.0  0.50495  0.55792  0.12096  1.0000
  O   O1140     1.0  0.55449  0.61505  0.12440  1.0000
  O   O1141     1.0  0.70185  0.61704  0.12191  1.0000
  O   O1142     1.0  0.75091  0.55294  0.16303  1.0000
  O   O1143     1.0  0.63280  0.55816  0.15071  1.0000
  Ti  Ti341     1.0  0.75380  0.61645  0.19058  1.0000
  Ti  Ti342     1.0  0.63159  0.55140  0.19167  1.0000
  O   O1144     1.0  0.67828  0.61370  0.19061  1.0000
  O   O1145     1.0  0.58084  0.61523  0.18840  1.0000
  O   O1146     1.0  0.62595  0.55027  0.22809  1.0000
  O   O1147     1.0  0.50225  0.55475  0.21566  1.0000
  Ti  Ti343     1.0  0.62994  0.61510  0.25377  1.0000
  Ti  Ti344     1.0  0.50186  0.55079  0.25625  1.0000
  O   O1148     1.0  0.55428  0.61216  0.25305  1.0000
  O   O1149     1.0  0.70504  0.61657  0.25140  1.0000
  O   O1150     1.0  0.75457  0.55144  0.29200  1.0000
  O   O1151     1.0  0.63071  0.55101  0.27774  1.0000
  Ti  Ti345     1.0  0.75941  0.61519  0.31453  1.0000
  Ti  Ti346     1.0  0.63359  0.54512  0.31603  1.0000
  O   O1152     1.0  0.67848  0.60630  0.31702  1.0000
  O   O1153     1.0  0.57935  0.60536  0.31482  1.0000
  O   O1154     1.0  0.62633  0.54936  0.35806  1.0000
  O   O1155     1.0  0.50331  0.54368  0.34360  1.0000
  Ti  Ti347     1.0  0.62912  0.61351  0.38123  1.0000
  Ti  Ti348     1.0  0.75625  0.54818  0.37865  1.0000
  O   O1156     1.0  0.55233  0.61065  0.38188  1.0000
  O   O1157     1.0  0.70446  0.61127  0.37819  1.0000
  O   O1158     1.0  0.50142  0.55458  0.42019  1.0000
  O   O1159     1.0  0.63033  0.54990  0.40785  1.0000
  Ti  Ti349     1.0  0.75664  0.61490  0.44153  1.0000
  Ti  Ti350     1.0  0.63261  0.55085  0.44546  1.0000
  O   O1160     1.0  0.68079  0.61915  0.44690  1.0000
  O   O1161     1.0  0.58057  0.61315  0.44744  1.0000
  O   O1162     1.0  0.75524  0.54913  0.47095  1.0000
  O   O1163     1.0  0.75118  0.67454  0.03600  1.0000
  Ti  Ti351     1.0  0.75324  0.74151  0.05520  1.0000
  Ti  Ti352     1.0  0.62879  0.68061  0.06392  1.0000
  O   O1164     1.0  0.67531  0.73816  0.06183  1.0000
  O   O1165     1.0  0.58368  0.74251  0.05934  1.0000
  O   O1166     1.0  0.62524  0.67985  0.09924  1.0000
  O   O1167     1.0  0.50340  0.68059  0.08484  1.0000
  Ti  Ti353     1.0  0.63259  0.74222  0.12707  1.0000
  Ti  Ti354     1.0  0.50003  0.68494  0.12583  1.0000
  O   O1168     1.0  0.55227  0.74169  0.12375  1.0000
  O   O1169     1.0  0.70799  0.73603  0.12258  1.0000
  O   O1170     1.0  0.75543  0.67599  0.16370  1.0000
  O   O1171     1.0  0.62827  0.67810  0.14983  1.0000
  Ti  Ti355     1.0  0.75508  0.74308  0.18771  1.0000
  Ti  Ti356     1.0  0.62698  0.67907  0.19030  1.0000
  O   O1172     1.0  0.67606  0.73659  0.19024  1.0000
  O   O1173     1.0  0.58086  0.74025  0.18671  1.0000
  O   O1174     1.0  0.62341  0.67354  0.22874  1.0000
  O   O1175     1.0  0.50169  0.68469  0.21540  1.0000
  Ti  Ti357     1.0  0.62956  0.73843  0.25240  1.0000
  Ti  Ti358     1.0  0.50412  0.67457  0.25541  1.0000
  O   O1176     1.0  0.55457  0.73771  0.25371  1.0000
  O   O1177     1.0  0.70540  0.74438  0.25374  1.0000
  O   O1178     1.0  0.75404  0.67726  0.29213  1.0000
  O   O1179     1.0  0.62680  0.67756  0.27950  1.0000
  Ti  Ti359     1.0  0.75214  0.73791  0.32052  1.0000
  Ti  Ti360     1.0  0.62980  0.66864  0.31754  1.0000
  O   O1180     1.0  0.67733  0.73360  0.31900  1.0000
  O   O1181     1.0  0.58139  0.73779  0.31668  1.0000
  O   O1182     1.0  0.62623  0.67485  0.35632  1.0000
  O   O1183     1.0  0.50378  0.67559  0.34300  1.0000
  Ti  Ti361     1.0  0.63107  0.73863  0.38080  1.0000
  Ti  Ti362     1.0  0.75763  0.67353  0.38043  1.0000
  O   O1184     1.0  0.55035  0.73634  0.38398  1.0000
  O   O1185     1.0  0.70669  0.73173  0.38330  1.0000
  O   O1186     1.0  0.50543  0.66926  0.42044  1.0000
  O   O1187     1.0  0.62449  0.67734  0.40682  1.0000
  Ti  Ti363     1.0  0.75455  0.74697  0.45075  1.0000
  Ti  Ti364     1.0  0.62820  0.67271  0.44197  1.0000
  O   O1188     1.0  0.67652  0.73350  0.44875  1.0000
  O   O1189     1.0  0.58089  0.74117  0.44771  1.0000
  O   O1190     1.0  0.75094  0.68106  0.47307  1.0000
  O   O1191     1.0  0.74754  0.80226  0.03340  1.0000
  Ti  Ti365     1.0  0.75109  0.86751  0.05764  1.0000
  Ti  Ti366     1.0  0.62710  0.80670  0.06244  1.0000
  O   O1192     1.0  0.67838  0.86595  0.06008  1.0000
  O   O1193     1.0  0.58201  0.87071  0.06092  1.0000
  O   O1194     1.0  0.62967  0.80075  0.09967  1.0000
  O   O1195     1.0  0.50804  0.80399  0.08317  1.0000
  Ti  Ti367     1.0  0.62965  0.86946  0.12585  1.0000
  Ti  Ti368     1.0  0.50562  0.81030  0.11879  1.0000
  O   O1196     1.0  0.55481  0.87004  0.12455  1.0000
  O   O1197     1.0  0.70399  0.86044  0.12437  1.0000
  O   O1198     1.0  0.75175  0.79733  0.16496  1.0000
  O   O1199     1.0  0.63079  0.80832  0.14971  1.0000
  Ti  Ti369     1.0  0.75161  0.86732  0.18807  1.0000
  Ti  Ti370     1.0  0.63256  0.80254  0.18971  1.0000
  O   O1200     1.0  0.67875  0.86712  0.18951  1.0000
  O   O1201     1.0  0.58091  0.86773  0.18960  1.0000
  O   O1202     1.0  0.62770  0.80038  0.22862  1.0000
  O   O1203     1.0  0.50845  0.80646  0.21142  1.0000
  Ti  Ti371     1.0  0.63044  0.86524  0.25061  1.0000
  Ti  Ti372     1.0  0.51351  0.80037  0.25580  1.0000
  O   O1204     1.0  0.55366  0.86394  0.25260  1.0000
  O   O1205     1.0  0.70310  0.86576  0.25238  1.0000
  O   O1206     1.0  0.75631  0.80320  0.29164  1.0000
  O   O1207     1.0  0.62643  0.79906  0.27675  1.0000
  Ti  Ti373     1.0  0.75636  0.86384  0.31738  1.0000
  Ti  Ti374     1.0  0.63195  0.79704  0.31397  1.0000
  O   O1208     1.0  0.67921  0.86306  0.31306  1.0000
  O   O1209     1.0  0.58020  0.86098  0.31981  1.0000
  O   O1210     1.0  0.62996  0.80079  0.35725  1.0000
  O   O1211     1.0  0.50350  0.80008  0.34404  1.0000
  Ti  Ti375     1.0  0.62067  0.86561  0.38151  1.0000
  Ti  Ti376     1.0  0.74920  0.79876  0.38582  1.0000
  O   O1212     1.0  0.55351  0.86511  0.38321  1.0000
  O   O1213     1.0  0.71194  0.86317  0.37868  1.0000
  O   O1214     1.0  0.50289  0.80184  0.42147  1.0000
  O   O1215     1.0  0.63556  0.80374  0.40602  1.0000
  Ti  Ti377     1.0  0.75256  0.87157  0.44935  1.0000
  Ti  Ti378     1.0  0.63014  0.79851  0.44606  1.0000
  O   O1216     1.0  0.67897  0.86361  0.44854  1.0000
  O   O1217     1.0  0.58163  0.86477  0.44633  1.0000
  O   O1218     1.0  0.74382  0.80598  0.47212  1.0000
  O   O1219     1.0  0.75733  0.92841  0.03336  1.0000
  Ti  Ti379     1.0  0.75540  0.99817  0.05640  1.0000
  Ti  Ti380     1.0  0.63235  0.93132  0.06393  1.0000
  O   O1220     1.0  0.68018  0.98937  0.05688  1.0000
  O   O1221     1.0  0.58277  0.98991  0.05945  1.0000
  O   O1222     1.0  0.63774  0.93131  0.09906  1.0000
  O   O1223     1.0  0.50533  0.93066  0.08372  1.0000
  Ti  Ti381     1.0  0.62832  0.99659  0.12637  1.0000
  Ti  Ti382     1.0  0.50145  0.93208  0.12061  1.0000
  O   O1224     1.0  0.55071  0.99515  0.12620  1.0000
  O   O1225     1.0  0.70307  0.99482  0.12206  1.0000
  O   O1226     1.0  0.75551  0.92703  0.16422  1.0000
  O   O1227     1.0  0.62877  0.93019  0.14880  1.0000
  Ti  Ti383     1.0  0.75425  0.98918  0.18574  1.0000
  Ti  Ti384     1.0  0.62695  0.93175  0.18858  1.0000
  O   O1228     1.0  0.67773  0.98874  0.18859  1.0000
  O   O1229     1.0  0.58249  0.99260  0.18883  1.0000
  O   O1230     1.0  0.62867  0.92773  0.22894  1.0000
  O   O1231     1.0  0.50432  0.92782  0.21401  1.0000
  Ti  Ti385     1.0  0.62381  0.98867  0.25392  1.0000
  Ti  Ti386     1.0  0.99943  0.92162  0.24771  1.0000
  O   O1232     1.0  0.55345  0.98509  0.25435  1.0000
  O   O1233     1.0  0.70548  0.99256  0.25449  1.0000
  O   O1234     1.0  0.75960  0.92141  0.28995  1.0000
  O   O1235     1.0  0.62915  0.92447  0.27830  1.0000
  Ti  Ti387     1.0  0.75674  0.98341  0.31684  1.0000
  Ti  Ti388     1.0  0.62935  0.91910  0.31630  1.0000
  O   O1236     1.0  0.68163  0.98828  0.31212  1.0000
  O   O1237     1.0  0.58238  0.98473  0.31821  1.0000
  O   O1238     1.0  0.63564  0.92705  0.35651  1.0000
  O   O1239     1.0  0.50675  0.92081  0.34151  1.0000
  Ti  Ti389     1.0  0.62618  0.99070  0.37893  1.0000
  Ti  Ti390     1.0  0.74806  0.92827  0.38461  1.0000
  O   O1240     1.0  0.55243  0.98487  0.38617  1.0000
  O   O1241     1.0  0.70175  0.98780  0.38055  1.0000
  O   O1242     1.0  0.50054  0.92223  0.42207  1.0000
  O   O1243     1.0  0.63714  0.92851  0.40615  1.0000
  Ti  Ti391     1.0  0.76251  0.99368  0.44721  1.0000
  Ti  Ti392     1.0  0.63170  0.92852  0.44282  1.0000
  O   O1244     1.0  0.67583  0.98706  0.44901  1.0000
  O   O1245     1.0  0.58074  0.99018  0.44675  1.0000
  O   O1246     1.0  0.75736  0.93064  0.47137  1.0000
  O   O1247     1.0  0.51161  0.55482  0.03481  1.0000
  Ti  Ti393     1.0  0.50788  0.61885  0.05952  1.0000
  Ti  Ti394     1.0  0.88040  0.55454  0.06439  1.0000
  O   O1248     1.0  0.92657  0.61761  0.06062  1.0000
  O   O1249     1.0  0.83200  0.61579  0.05646  1.0000
  O   O1250     1.0  0.88077  0.55208  0.10024  1.0000
  O   O1251     1.0  0.75843  0.54952  0.08567  1.0000
  Ti  Ti395     1.0  0.87762  0.61372  0.12442  1.0000
  Ti  Ti396     1.0  0.75310  0.55431  0.12443  1.0000
  O   O1252     1.0  0.80154  0.61279  0.12426  1.0000
  O   O1253     1.0  0.95310  0.61860  0.12598  1.0000
  O   O1254     1.0  0.50168  0.55397  0.16564  1.0000
  O   O1255     1.0  0.87402  0.54908  0.15070  1.0000
  Ti  Ti397     1.0  0.50372  0.61026  0.19076  1.0000
  Ti  Ti398     1.0  0.87398  0.55455  0.19110  1.0000
  O   O1256     1.0  0.92541  0.61435  0.18956  1.0000
  O   O1257     1.0  0.82602  0.61765  0.18590  1.0000
  O   O1258     1.0  0.87524  0.55321  0.22839  1.0000
  O   O1259     1.0  0.75216  0.55119  0.21364  1.0000
  Ti  Ti399     1.0  0.87404  0.61685  0.25111  1.0000
  Ti  Ti400     1.0  0.75104  0.55656  0.25414  1.0000
  O   O1260     1.0  0.80242  0.61878  0.25494  1.0000
  O   O1261     1.0  0.95502  0.61306  0.25455  1.0000
  O   O1262     1.0  0.99980  0.54558  0.29387  1.0000
  O   O1263     1.0  0.88169  0.55284  0.27880  1.0000
  Ti  Ti401     1.0  0.50658  0.60679  0.32179  1.0000
  Ti  Ti402     1.0  0.88036  0.54687  0.31726  1.0000
  O   O1264     1.0  0.92669  0.61219  0.31861  1.0000
  O   O1265     1.0  0.82881  0.61167  0.31767  1.0000
  O   O1266     1.0  0.87668  0.54678  0.35858  1.0000
  O   O1267     1.0  0.75847  0.54579  0.34290  1.0000
  Ti  Ti403     1.0  0.87763  0.61141  0.38017  1.0000
  Ti  Ti404     1.0  0.50828  0.54528  0.38226  1.0000
  O   O1268     1.0  0.80415  0.61168  0.37881  1.0000
  O   O1269     1.0  0.95170  0.61265  0.38210  1.0000
  O   O1270     1.0  0.75199  0.54854  0.41906  1.0000
  O   O1271     1.0  0.87647  0.54844  0.40807  1.0000
  Ti  Ti405     1.0  0.50453  0.61463  0.44749  1.0000
  Ti  Ti406     1.0  0.88239  0.54871  0.44390  1.0000
  O   O1272     1.0  0.92551  0.61048  0.44889  1.0000
  O   O1273     1.0  0.83017  0.61598  0.44688  1.0000
  O   O1274     1.0  0.50486  0.55260  0.47222  1.0000
  O   O1275     1.0  0.50868  0.67487  0.03438  1.0000
  Ti  Ti407     1.0  0.50755  0.73566  0.05589  1.0000
  Ti  Ti408     1.0  0.87950  0.67865  0.06287  1.0000
  O   O1276     1.0  0.93115  0.73810  0.05785  1.0000
  O   O1277     1.0  0.83404  0.74286  0.05828  1.0000
  O   O1278     1.0  0.87743  0.68117  0.09772  1.0000
  O   O1279     1.0  0.75662  0.67984  0.08569  1.0000
  Ti  Ti409     1.0  0.87845  0.74277  0.12520  1.0000
  Ti  Ti410     1.0  0.75369  0.67676  0.12549  1.0000
  O   O1280     1.0  0.80313  0.73879  0.12592  1.0000
  O   O1281     1.0  0.95650  0.74436  0.12160  1.0000
  O   O1282     1.0  0.50235  0.67858  0.16462  1.0000
  O   O1283     1.0  0.88098  0.67829  0.14891  1.0000
  Ti  Ti411     1.0  0.50247  0.74066  0.19080  1.0000
  Ti  Ti412     1.0  0.88274  0.67764  0.18929  1.0000
  O   O1284     1.0  0.92596  0.74132  0.18808  1.0000
  O   O1285     1.0  0.83041  0.73824  0.18575  1.0000
  O   O1286     1.0  0.88110  0.68066  0.22775  1.0000
  O   O1287     1.0  0.75610  0.67797  0.21443  1.0000
  Ti  Ti413     1.0  0.88442  0.74418  0.25260  1.0000
  Ti  Ti414     1.0  0.75514  0.68649  0.25122  1.0000
  O   O1288     1.0  0.80536  0.74348  0.25385  1.0000
  O   O1289     1.0  0.95578  0.74209  0.25392  1.0000
  O   O1290     1.0  0.50404  0.67425  0.29259  1.0000
  O   O1291     1.0  0.87677  0.67724  0.27764  1.0000
  Ti  Ti415     1.0  0.50886  0.73782  0.31867  1.0000
  Ti  Ti416     1.0  0.88307  0.67519  0.31466  1.0000
  O   O1292     1.0  0.92840  0.73750  0.31598  1.0000
  O   O1293     1.0  0.82926  0.73650  0.31797  1.0000
  O   O1294     1.0  0.87813  0.67548  0.35759  1.0000
  O   O1295     1.0  0.75184  0.67337  0.34198  1.0000
  Ti  Ti417     1.0  0.87544  0.73638  0.38063  1.0000
  Ti  Ti418     1.0  0.50470  0.67222  0.38411  1.0000
  O   O1296     1.0  0.80263  0.73634  0.38131  1.0000
  O   O1297     1.0  0.95124  0.73678  0.38167  1.0000
  O   O1298     1.0  0.75548  0.67355  0.41848  1.0000
  O   O1299     1.0  0.87407  0.67094  0.40847  1.0000
  Ti  Ti419     1.0  0.50558  0.74173  0.44775  1.0000
  Ti  Ti420     1.0  0.88003  0.67552  0.44352  1.0000
  O   O1300     1.0  0.92944  0.73861  0.44270  1.0000
  O   O1301     1.0  0.83273  0.74103  0.45112  1.0000
  O   O1302     1.0  0.50447  0.67637  0.47050  1.0000
  O   O1303     1.0  0.50852  0.80490  0.03448  1.0000
  Ti  Ti421     1.0  0.50435  0.86539  0.05694  1.0000
  Ti  Ti422     1.0  0.88115  0.80377  0.06283  1.0000
  O   O1304     1.0  0.92946  0.86460  0.05817  1.0000
  O   O1305     1.0  0.83398  0.86579  0.05734  1.0000
  O   O1306     1.0  0.87882  0.80810  0.09849  1.0000
  O   O1307     1.0  0.75030  0.80152  0.08345  1.0000
  Ti  Ti423     1.0  0.87781  0.86756  0.12540  1.0000
  Ti  Ti424     1.0  0.75586  0.80300  0.11939  1.0000
  O   O1308     1.0  0.80018  0.86620  0.12413  1.0000
  O   O1309     1.0  0.95437  0.86551  0.12337  1.0000
  O   O1310     1.0  0.50919  0.80319  0.16385  1.0000
  O   O1311     1.0  0.87548  0.80331  0.14783  1.0000
  Ti  Ti425     1.0  0.50715  0.86423  0.18466  1.0000
  Ti  Ti426     1.0  0.87406  0.80121  0.19042  1.0000
  O   O1312     1.0  0.92742  0.86572  0.18899  1.0000
  O   O1313     1.0  0.83145  0.86141  0.18904  1.0000
  O   O1314     1.0  0.88094  0.80717  0.22938  1.0000
  O   O1315     1.0  0.75130  0.80396  0.21400  1.0000
  Ti  Ti427     1.0  0.87670  0.86842  0.25690  1.0000
  Ti  Ti428     1.0  0.75651  0.80774  0.25379  1.0000
  O   O1316     1.0  0.80230  0.86875  0.25267  1.0000
  O   O1317     1.0  0.95457  0.86059  0.25442  1.0000
  O   O1318     1.0  0.50599  0.80003  0.29350  1.0000
  O   O1319     1.0  0.87820  0.80277  0.27835  1.0000
  Ti  Ti429     1.0  0.50531  0.86116  0.32110  1.0000
  Ti  Ti430     1.0  0.87882  0.79943  0.31769  1.0000
  O   O1320     1.0  0.92718  0.86351  0.31934  1.0000
  O   O1321     1.0  0.83103  0.86156  0.31936  1.0000
  O   O1322     1.0  0.87966  0.79603  0.35743  1.0000
  O   O1323     1.0  0.75398  0.79803  0.34271  1.0000
  Ti  Ti431     1.0  0.87250  0.86368  0.38262  1.0000
  Ti  Ti432     1.0  0.99808  0.79597  0.38550  1.0000
  O   O1324     1.0  0.80379  0.86349  0.38110  1.0000
  O   O1325     1.0  0.95393  0.85970  0.38298  1.0000
  O   O1326     1.0  0.75406  0.80434  0.42147  1.0000
  O   O1327     1.0  0.87157  0.79794  0.40796  1.0000
  Ti  Ti433     1.0  0.50273  0.86626  0.45071  1.0000
  Ti  Ti434     1.0  0.87922  0.80094  0.44380  1.0000
  O   O1328     1.0  0.92820  0.86183  0.45106  1.0000
  O   O1329     1.0  0.83043  0.86698  0.45058  1.0000
  O   O1330     1.0  0.50399  0.79982  0.47242  1.0000
  O   O1331     1.0  0.50616  0.92776  0.03456  1.0000
  Ti  Ti435     1.0  0.50823  0.99165  0.05513  1.0000
  Ti  Ti436     1.0  0.87948  0.93043  0.06165  1.0000
  O   O1332     1.0  0.92868  0.99491  0.06078  1.0000
  O   O1333     1.0  0.83140  0.99370  0.05792  1.0000
  O   O1334     1.0  0.87482  0.93030  0.09708  1.0000
  O   O1335     1.0  0.75718  0.92398  0.08513  1.0000
  Ti  Ti437     1.0  0.87544  0.99050  0.12722  1.0000
  Ti  Ti438     1.0  0.74797  0.92651  0.11978  1.0000
  O   O1336     1.0  0.80001  0.98694  0.12589  1.0000
  O   O1337     1.0  0.95650  0.99286  0.12372  1.0000
  O   O1338     1.0  0.50576  0.93156  0.16234  1.0000
  O   O1339     1.0  0.87634  0.92806  0.14950  1.0000
  Ti  Ti439     1.0  0.50046  0.99036  0.18690  1.0000
  Ti  Ti440     1.0  0.88231  0.92510  0.19308  1.0000
  O   O1340     1.0  0.92743  0.99331  0.19100  1.0000
  O   O1341     1.0  0.83030  0.99132  0.18976  1.0000
  O   O1342     1.0  0.87373  0.92863  0.22869  1.0000
  O   O1343     1.0  0.75169  0.92642  0.21383  1.0000
  Ti  Ti441     1.0  0.87870  0.99172  0.25435  1.0000
  Ti  Ti442     1.0  0.75010  0.93111  0.25139  1.0000
  O   O1344     1.0  0.80247  0.99023  0.25155  1.0000
  O   O1345     1.0  0.95417  0.98734  0.25307  1.0000
  O   O1346     1.0  0.50562  0.91972  0.29314  1.0000
  O   O1347     1.0  0.87807  0.92903  0.27941  1.0000
  Ti  Ti443     1.0  0.50779  0.97886  0.31503  1.0000
  Ti  Ti444     1.0  0.88449  0.92421  0.32047  1.0000
  O   O1348     1.0  0.92677  0.98389  0.31790  1.0000
  O   O1349     1.0  0.83176  0.98684  0.31804  1.0000
  O   O1350     1.0  0.88072  0.92391  0.35739  1.0000
  O   O1351     1.0  0.75359  0.92581  0.33976  1.0000
  Ti  Ti445     1.0  0.87999  0.98422  0.38241  1.0000
  Ti  Ti446     1.0  0.99691  0.92241  0.38685  1.0000
  O   O1352     1.0  0.80063  0.98246  0.38414  1.0000
  O   O1353     1.0  0.95382  0.98933  0.38335  1.0000
  O   O1354     1.0  0.75091  0.92492  0.42110  1.0000
  O   O1355     1.0  0.87404  0.92186  0.40773  1.0000
  Ti  Ti447     1.0  0.50494  0.99532  0.44997  1.0000
  Ti  Ti448     1.0  0.87758  0.92422  0.45423  1.0000
  O   O1356     1.0  0.92847  0.98933  0.44913  1.0000
  O   O1357     1.0  0.83139  0.98737  0.44523  1.0000
  O   O1358     1.0  0.50881  0.93029  0.47253  1.0000
  O   O1359     1.0  0.63028  0.55515  0.02081  1.0000
  H   H925      1.0  0.66027  0.53394  0.01310  1.0000
  H   H926      1.0  0.59826  0.54839  0.00893  1.0000
  O   O1360     1.0  0.63353  0.54257  0.48742  1.0000
  H   H927      1.0  0.64002  0.50248  0.49084  1.0000
  H   H928      1.0  0.66211  0.56775  0.49845  1.0000
  O   O1361     1.0  0.62818  0.67180  0.01934  1.0000
  H   H929      1.0  0.66366  0.67933  0.01474  1.0000
  H   H930      1.0  0.63491  0.62902  0.01708  1.0000
  O   O1362     1.0  0.62220  0.67733  0.49103  1.0000
  H   H931      1.0  0.65421  0.66972  0.50020  1.0000
  H   H932      1.0  0.59625  0.65734  0.50150  1.0000
  O   O1363     1.0  0.65016  0.81273  0.01814  1.0000
  H   H933      1.0  0.68694  0.80767  0.02034  1.0000
  H   H934      1.0  0.63330  0.78637  0.00579  1.0000
  O   O1364     1.0  0.64052  0.79715  0.48633  1.0000
  H   H935      1.0  0.62978  0.75722  0.49165  1.0000
  H   H936      1.0  0.67886  0.79579  0.48877  1.0000
  O   O1365     1.0  0.62983  0.92272  0.02004  1.0000
  H   H937      1.0  0.59420  0.93155  0.01471  1.0000
  H   H938      1.0  0.63767  0.88111  0.01507  1.0000
  O   O1366     1.0  0.61269  0.93544  0.48722  1.0000
  H   H939      1.0  0.62981  0.90623  0.49984  1.0000
  H   H940      1.0  0.57775  0.92399  0.48920  1.0000
  O   O1367     1.0  0.88610  0.55176  0.01881  1.0000
  H   H941      1.0  0.91391  0.56861  0.00780  1.0000
  H   H942      1.0  0.85377  0.57196  0.01321  1.0000
  O   O1368     1.0  0.86803  0.54401  0.48955  1.0000
  H   H943      1.0  0.83423  0.56215  0.49406  1.0000
  H   H944      1.0  0.86655  0.50469  0.49590  1.0000
  O   O1369     1.0  0.87661  0.68511  0.01858  1.0000
  H   H945      1.0  0.90852  0.66924  0.01261  1.0000
  H   H946      1.0  0.88241  0.72628  0.01581  1.0000
  O   O1370     1.0  0.89184  0.67915  0.48892  1.0000
  H   H947      1.0  0.92406  0.66521  0.49532  1.0000
  H   H948      1.0  0.86493  0.65635  0.49671  1.0000
  O   O1371     1.0  0.86598  0.79575  0.01708  1.0000
  H   H949      1.0  0.89510  0.82133  0.01100  1.0000
  H   H950      1.0  0.83425  0.81744  0.01138  1.0000
  O   O1372     1.0  0.88869  0.79758  0.49324  1.0000
  H   H951      1.0  0.91445  0.82437  0.49995  1.0000
  H   H952      1.0  0.76937  0.87192  0.52425  1.0000
  O   O1373     1.0  0.88745  0.94319  0.02035  1.0000
  H   H953      1.0  0.89164  0.98419  0.01635  1.0000
  H   H954      1.0  0.91935  0.92354  0.01500  1.0000
  O   O1374     1.0  0.87732  0.93450  0.48983  1.0000
  H   H955      1.0  0.91046  0.91769  0.49843  1.0000
  H   H956      1.0  0.90777  0.76205  0.49174  1.0000
  H   H957      1.0  0.84568  0.91321  0.93963  1.0000
  H   H958      1.0  0.87015  0.85733  0.92636  1.0000
  O   O1375     1.0  0.84148  0.88024  0.92670  1.0000
  H   H959      1.0  0.72907  0.92342  0.87993  1.0000
  H   H960      1.0  0.71216  0.89386  0.85455  1.0000
  O   O1376     1.0  0.70265  0.89750  0.87325  1.0000
  H   H961      1.0  0.80943  0.60601  0.59746  1.0000
  H   H962      1.0  0.77328  0.61575  0.62216  1.0000
  O   O1377     1.0  0.77426  0.60736  0.60339  1.0000
  H   H963      1.0  0.58662  0.78525  0.57821  1.0000
  H   H964      1.0  0.59291  0.80442  0.60810  1.0000
  O   O1378     1.0  0.57013  0.78127  0.59593  1.0000
  H   H965      1.0  0.70175  0.68042  0.83307  1.0000
  H   H966      1.0  0.72528  0.73662  0.84310  1.0000
  O   O1379     1.0  0.70468  0.72077  0.82864  1.0000
  H   H967      1.0  0.60300  0.84364  0.65461  1.0000
  H   H968      1.0  0.60107  0.88111  0.62863  1.0000
  O   O1380     1.0  0.60018  0.84176  0.63486  1.0000
  H   H969      1.0  0.99292  0.67631  0.82350  1.0000
  H   H970      1.0  0.95245  0.62792  0.82044  1.0000
  O   O1381     1.0  0.95583  0.66806  0.82432  1.0000
  H   H971      1.0  0.73526  0.52337  0.79904  1.0000
  H   H972      1.0  0.67238  0.53555  0.79989  1.0000
  O   O1382     1.0  0.70352  0.52738  0.81071  1.0000
  H   H973      1.0  0.75886  0.53005  0.56903  1.0000
  H   H974      1.0  0.74001  0.59135  0.56893  1.0000
  O   O1383     1.0  0.73113  0.55498  0.56168  1.0000
  H   H975      1.0  0.99999  0.92744  0.99372  1.0000
  H   H976      1.0  0.53097  0.90328  0.96851  1.0000
  O   O1384     1.0  0.51666  0.93799  0.97744  1.0000
  H   H977      1.0  0.72400  0.78550  0.97715  1.0000
  H   H978      1.0  0.74986  0.81523  0.95213  1.0000
  O   O1385     1.0  0.73363  0.82410  0.96961  1.0000
  H   H979      1.0  0.74020  0.50714  0.93542  1.0000
  H   H980      1.0  0.70172  0.95931  0.92733  1.0000
  O   O1386     1.0  0.71377  0.99695  0.92240  1.0000
  H   H981      1.0  0.90857  0.54260  0.62862  1.0000
  H   H982      1.0  0.85041  0.52596  0.63700  1.0000
  O   O1387     1.0  0.87783  0.55596  0.63634  1.0000
  H   H983      1.0  0.76697  0.94447  0.58617  1.0000
  H   H984      1.0  0.75304  0.92804  0.61273  1.0000
  O   O1388     1.0  0.74879  0.91514  0.59542  1.0000
  H   H985      1.0  0.92454  0.96782  0.84951  1.0000
  H   H986      1.0  0.92933  0.92724  0.87336  1.0000
  O   O1389     1.0  0.93707  0.96705  0.86885  1.0000
  H   H987      1.0  0.57874  0.72837  0.82810  1.0000
  H   H988      1.0  0.57804  0.67211  0.84099  1.0000
  O   O1390     1.0  0.56866  0.69031  0.82404  1.0000
  H   H989      1.0  0.79972  0.94795  0.54739  1.0000
  H   H990      1.0  0.85264  0.94914  0.56051  1.0000
  O   O1391     1.0  0.82213  0.97175  0.55792  1.0000
  H   H991      1.0  0.65190  0.67406  0.63610  1.0000
  H   H992      1.0  0.67567  0.61476  0.64489  1.0000
  O   O1392     1.0  0.67196  0.65554  0.65098  1.0000
  H   H993      1.0  0.86420  0.92677  0.69052  1.0000
  H   H994      1.0  0.92407  0.94566  0.69310  1.0000
  O   O1393     1.0  0.88964  0.95273  0.69905  1.0000
  H   H995      1.0  0.87657  0.85259  0.62473  1.0000
  H   H996      1.0  0.81428  0.84984  0.62816  1.0000
  O   O1394     1.0  0.84352  0.82785  0.62338  1.0000
  H   H997      1.0  0.52081  0.78392  0.50731  1.0000
  H   H998      1.0  0.98803  0.78822  0.53458  1.0000
  O   O1395     1.0  0.52054  0.77774  0.52657  1.0000
  H   H999      1.0  0.83363  0.60406  0.92329  1.0000
  H   H1000     1.0  0.89119  0.59177  0.92585  1.0000
  O   O1396     1.0  0.86143  0.59680  0.93713  1.0000
  H   H1001     1.0  0.74953  0.51959  0.97737  1.0000
  H   H1002     1.0  0.78984  0.56824  0.97311  1.0000
  O   O1397     1.0  0.77601  0.53369  0.96434  1.0000
  H   H1003     1.0  0.78365  0.61715  0.00847  1.0000
  H   H1004     1.0  0.82666  0.65401  0.99590  1.0000
  O   O1398     1.0  0.80971  0.61941  0.99437  1.0000
  H   H1005     1.0  0.52986  0.89347  0.69504  1.0000
  H   H1006     1.0  0.51160  0.93837  0.71568  1.0000
  O   O1399     1.0  0.51054  0.93027  0.69619  1.0000
  H   H1007     1.0  0.58694  0.97048  0.73951  1.0000
  H   H1008     1.0  0.64410  0.94871  0.73671  1.0000
  O   O1400     1.0  0.62349  0.98229  0.73943  1.0000
  H   H1009     1.0  0.72101  0.57147  0.49548  1.0000
  H   H1010     1.0  0.71920  0.57347  0.52726  1.0000
  O   O1401     1.0  0.70256  0.59067  0.51182  1.0000
  H   H1011     1.0  0.77454  0.90714  0.71417  1.0000
  H   H1012     1.0  0.81736  0.87441  0.73422  1.0000
  O   O1402     1.0  0.77945  0.88348  0.73117  1.0000
  H   H1013     1.0  0.57544  0.56495  0.58990  1.0000
  H   H1014     1.0  0.55241  0.60367  0.60873  1.0000
  O   O1403     1.0  0.54201  0.57349  0.59745  1.0000
  H   H1015     1.0  0.92087  0.55790  0.51089  1.0000
  H   H1016     1.0  0.97964  0.56202  0.50564  1.0000
  O   O1404     1.0  0.95435  0.56875  0.52016  1.0000
  H   H1017     1.0  0.75787  0.66869  0.49024  1.0000
  H   H1018     1.0  0.83448  0.80352  0.51372  1.0000
  O   O1405     1.0  0.80112  0.80837  0.52339  1.0000
  H   H1019     1.0  0.98146  0.72600  0.96553  1.0000
  H   H1020     1.0  0.50057  0.66714  0.97643  1.0000
  O   O1406     1.0  0.51081  0.70211  0.96783  1.0000
  H   H1021     1.0  0.98575  0.74106  0.74744  1.0000
  H   H1022     1.0  0.94949  0.75056  0.72417  1.0000
  O   O1407     1.0  0.95234  0.72774  0.74042  1.0000
  H   H1023     1.0  0.67595  0.68433  0.68684  1.0000
  H   H1024     1.0  0.71158  0.72673  0.70141  1.0000
  O   O1408     1.0  0.68204  0.69734  0.70523  1.0000
  H   H1025     1.0  0.69264  0.66044  0.73334  1.0000
  H   H1026     1.0  0.72438  0.63028  0.75662  1.0000
  O   O1409     1.0  0.69253  0.65103  0.75166  1.0000
  H   H1027     1.0  0.61633  0.69735  0.88536  1.0000
  H   H1028     1.0  0.63103  0.71445  0.91325  1.0000
  O   O1410     1.0  0.63049  0.72909  0.89530  1.0000
  H   H1029     1.0  0.76999  0.94515  0.83289  1.0000
  H   H1030     1.0  0.77831  0.98567  0.85561  1.0000
  O   O1411     1.0  0.79488  0.97517  0.83966  1.0000
  H   H1031     1.0  0.67307  0.83652  0.59379  1.0000
  H   H1032     1.0  0.68302  0.89857  0.58775  1.0000
  O   O1412     1.0  0.65971  0.86716  0.58262  1.0000
  H   H1033     1.0  0.70575  0.70834  0.58116  1.0000
  H   H1034     1.0  0.65998  0.73012  0.56586  1.0000
  O   O1413     1.0  0.68192  0.69754  0.56758  1.0000
  H   H1035     1.0  0.69224  0.55771  0.61159  1.0000
  H   H1036     1.0  0.65691  0.51994  0.62655  1.0000
  O   O1414     1.0  0.68230  0.54835  0.62909  1.0000
  H   H1037     1.0  0.98700  0.64019  0.69382  1.0000
  H   H1038     1.0  0.52980  0.69446  0.69720  1.0000
  O   O1415     1.0  0.51813  0.66101  0.68506  1.0000
  H   H1039     1.0  0.62953  0.88235  0.87033  1.0000
  H   H1040     1.0  0.57415  0.90711  0.86244  1.0000
  O   O1416     1.0  0.59318  0.87281  0.86770  1.0000
  H   H1041     1.0  0.55631  0.82389  0.96141  1.0000
  H   H1042     1.0  0.56091  0.83123  0.93139  1.0000
  O   O1417     1.0  0.56786  0.85427  0.94814  1.0000
  H   H1043     1.0  0.80566  0.80526  0.54297  1.0000
  H   H1044     1.0  0.77164  0.92482  0.50833  1.0000
  O   O1418     1.0  0.75956  0.91221  0.52563  1.0000
  H   H1045     1.0  0.82774  0.80523  0.59184  1.0000
  H   H1046     1.0  0.85748  0.76167  0.57549  1.0000
  O   O1419     1.0  0.82792  0.78682  0.57530  1.0000
  H   H1047     1.0  0.90552  0.76353  0.90194  1.0000
  H   H1048     1.0  0.95098  0.80531  0.89963  1.0000
  O   O1420     1.0  0.92707  0.78744  0.91149  1.0000
  H   H1049     1.0  0.60323  0.67100  0.79494  1.0000
  H   H1050     1.0  0.63765  0.65879  0.76875  1.0000
  O   O1421     1.0  0.60232  0.66285  0.77631  1.0000
  H   H1051     1.0  0.60927  0.62065  0.66330  1.0000
  H   H1052     1.0  0.56227  0.62033  0.68208  1.0000
  O   O1422     1.0  0.58684  0.59379  0.67302  1.0000
  H   H1053     1.0  0.54949  0.51639  0.80199  1.0000
  H   H1054     1.0  0.98584  0.52086  0.80754  1.0000
  O   O1423     1.0  0.51868  0.50229  0.81166  1.0000
  H   H1055     1.0  0.59954  0.95663  0.60819  1.0000
  H   H1056     1.0  0.58577  0.97079  0.63727  1.0000
  O   O1424     1.0  0.61514  0.95722  0.62517  1.0000
  H   H1057     1.0  0.88033  0.92564  0.75824  1.0000
  H   H1058     1.0  0.89971  0.95018  0.78479  1.0000
  O   O1425     1.0  0.88133  0.96025  0.76878  1.0000
  H   H1059     1.0  0.85243  0.77676  0.65168  1.0000
  H   H1060     1.0  0.86592  0.71586  0.65879  1.0000
  O   O1426     1.0  0.85423  0.75117  0.66657  1.0000
  H   H1061     1.0  0.80314  0.57634  0.82196  1.0000
  H   H1062     1.0  0.81323  0.60359  0.79472  1.0000
  O   O1427     1.0  0.82887  0.59673  0.81259  1.0000
  H   H1063     1.0  0.92990  0.63703  0.72209  1.0000
  H   H1064     1.0  0.90507  0.59921  0.70079  1.0000
  O   O1428     1.0  0.93970  0.61088  0.70873  1.0000
  H   H1065     1.0  0.62482  0.73451  0.71316  1.0000
  H   H1066     1.0  0.57478  0.74999  0.72954  1.0000
  O   O1429     1.0  0.58804  0.75056  0.71131  1.0000
  H   H1067     1.0  0.70645  0.92446  0.80827  1.0000
  H   H1068     1.0  0.73853  0.86740  0.80995  1.0000
  O   O1430     1.0  0.71712  0.89389  0.82017  1.0000
  H   H1069     1.0  0.55068  0.51244  0.98179  1.0000
  H   H1070     1.0  0.58056  0.54118  0.95972  1.0000
  O   O1431     1.0  0.57665  0.54197  0.97959  1.0000
  H   H1071     1.0  0.68333  0.96672  0.98488  1.0000
  H   H1072     1.0  0.72158  0.95987  0.00822  1.0000
  O   O1432     1.0  0.70673  0.98852  0.99619  1.0000
  H   H1073     1.0  0.68184  0.76145  0.88279  1.0000
  H   H1074     1.0  0.70879  0.82281  0.87980  1.0000
  O   O1433     1.0  0.71404  0.78140  0.87744  1.0000
  H   H1075     1.0  0.98533  0.58648  0.99756  1.0000
  H   H1076     1.0  0.94711  0.57878  0.97580  1.0000
  O   O1434     1.0  0.95224  0.60151  0.99071  1.0000
  H   H1077     1.0  0.89835  0.85025  0.72484  1.0000
  H   H1078     1.0  0.87422  0.81484  0.74817  1.0000
  O   O1435     1.0  0.87359  0.85085  0.73912  1.0000
  H   H1079     1.0  0.98069  0.89044  0.50092  1.0000
  H   H1080     1.0  0.95179  0.89004  0.53091  1.0000
  O   O1436     1.0  0.95389  0.87194  0.51284  1.0000
  H   H1081     1.0  0.81938  0.73391  0.94838  1.0000
  H   H1082     1.0  0.84606  0.67520  0.95210  1.0000
  O   O1437     1.0  0.83650  0.71088  0.96203  1.0000
  H   H1083     1.0  0.63721  0.62632  0.86090  1.0000
  H   H1084     1.0  0.58188  0.60267  0.87238  1.0000
  O   O1438     1.0  0.60089  0.63783  0.86736  1.0000
  H   H1085     1.0  0.96049  0.83455  0.60388  1.0000
  H   H1086     1.0  0.51032  0.80645  0.59295  1.0000
  O   O1439     1.0  0.97512  0.81969  0.58772  1.0000
  H   H1087     1.0  0.89255  0.57118  0.80943  1.0000
  H   H1088     1.0  0.93204  0.56675  0.78670  1.0000
  O   O1440     1.0  0.92812  0.57197  0.80586  1.0000
  H   H1089     1.0  0.89783  0.72867  0.76134  1.0000
  H   H1090     1.0  0.85440  0.71947  0.78555  1.0000
  O   O1441     1.0  0.86075  0.73464  0.76797  1.0000
  H   H1091     1.0  0.93467  0.83139  0.97979  1.0000
  H   H1092     1.0  0.96706  0.83392  0.00408  1.0000
  O   O1442     1.0  0.94024  0.85625  0.99567  1.0000
  H   H1093     1.0  0.54647  0.57448  0.52980  1.0000
  H   H1094     1.0  0.57468  0.53542  0.50905  1.0000
  O   O1443     1.0  0.55421  0.53684  0.52455  1.0000
  H   H1095     1.0  0.61465  0.87259  0.69480  1.0000
  H   H1096     1.0  0.58662  0.81211  0.69936  1.0000
  O   O1444     1.0  0.58406  0.84781  0.68834  1.0000
  H   H1097     1.0  0.54871  0.51546  0.87740  1.0000
  H   H1098     1.0  0.51829  0.55632  0.89500  1.0000
  O   O1445     1.0  0.55432  0.54875  0.88990  1.0000
  H   H1099     1.0  0.86886  0.62394  0.63294  1.0000
  H   H1100     1.0  0.87646  0.68349  0.61765  1.0000
  O   O1446     1.0  0.87873  0.66451  0.63434  1.0000
  H   H1101     1.0  0.71567  0.69757  0.97167  1.0000
  H   H1102     1.0  0.73462  0.71191  0.99887  1.0000
  O   O1447     1.0  0.70861  0.72116  0.98707  1.0000
  H   H1103     1.0  0.57273  0.83850  0.89173  1.0000
  H   H1104     1.0  0.58419  0.78128  0.90205  1.0000
  O   O1448     1.0  0.55650  0.80755  0.90231  1.0000
  H   H1105     1.0  0.91444  0.51219  0.75289  1.0000
  H   H1106     1.0  0.93714  0.56416  0.73682  1.0000
  O   O1449     1.0  0.94153  0.53957  0.75216  1.0000
  H   H1107     1.0  0.71118  0.60272  0.94407  1.0000
  H   H1108     1.0  0.66802  0.64075  0.94003  1.0000
  O   O1450     1.0  0.70451  0.64163  0.94394  1.0000
  H   H1109     1.0  0.81196  0.85288  0.78115  1.0000
  H   H1110     1.0  0.79434  0.79050  0.78398  1.0000
  O   O1451     1.0  0.79963  0.82535  0.79337  1.0000
  H   H1111     1.0  0.96752  0.52471  0.54894  1.0000
  H   H1112     1.0  0.51144  0.98677  0.56169  1.0000
  O   O1452     1.0  0.97404  0.99754  0.56231  1.0000
  H   H1113     1.0  0.73891  0.71803  0.79653  1.0000
  H   H1114     1.0  0.73233  0.70605  0.76761  1.0000
  O   O1453     1.0  0.75498  0.72551  0.77980  1.0000
  H   H1115     1.0  0.63802  0.68312  0.59565  1.0000
  H   H1116     1.0  0.59007  0.70802  0.60550  1.0000
  O   O1454     1.0  0.61505  0.67689  0.60976  1.0000
  H   H1117     1.0  0.80803  0.97175  0.77115  1.0000
  H   H1118     1.0  0.75612  0.96157  0.75548  1.0000
  O   O1455     1.0  0.77237  0.98400  0.76952  1.0000
  H   H1119     1.0  0.61314  0.82493  0.84652  1.0000
  H   H1120     1.0  0.65279  0.78003  0.83507  1.0000
  O   O1456     1.0  0.61828  0.79707  0.83220  1.0000
  H   H1121     1.0  0.51687  0.66066  0.50384  1.0000
  H   H1122     1.0  0.52794  0.69622  0.52936  1.0000
  O   O1457     1.0  0.53981  0.66204  0.51977  1.0000
  H   H1123     1.0  0.91929  0.99102  0.95884  1.0000
  H   H1124     1.0  0.97555  0.99464  0.96226  1.0000
  O   O1458     1.0  0.94754  0.51905  0.95499  1.0000
  H   H1125     1.0  0.93317  0.69080  0.58179  1.0000
  H   H1126     1.0  0.94133  0.75390  0.58809  1.0000
  O   O1459     1.0  0.91397  0.72697  0.58403  1.0000
  H   H1127     1.0  0.62419  0.81452  0.54131  1.0000
  H   H1128     1.0  0.57759  0.77476  0.54198  1.0000
  O   O1460     1.0  0.61061  0.78072  0.55111  1.0000
  H   H1129     1.0  0.86988  0.56663  0.66986  1.0000
  H   H1130     1.0  0.86898  0.53215  0.69666  1.0000
  O   O1461     1.0  0.85729  0.56804  0.68883  1.0000
  H   H1131     1.0  0.77375  0.56480  0.88653  1.0000
  H   H1132     1.0  0.72875  0.52598  0.89317  1.0000
  O   O1462     1.0  0.74807  0.54051  0.87773  1.0000
  H   H1133     1.0  0.50136  0.69274  0.65272  1.0000
  H   H1134     1.0  0.96063  0.70319  0.62827  1.0000
  O   O1463     1.0  0.99129  0.71743  0.63738  1.0000
  H   H1135     1.0  0.69100  0.88222  0.96279  1.0000
  H   H1136     1.0  0.63221  0.88915  0.95667  1.0000
  O   O1464     1.0  0.66543  0.91151  0.95622  1.0000
  H   H1137     1.0  0.77554  0.75258  0.59486  1.0000
  H   H1138     1.0  0.76185  0.69723  0.61127  1.0000
  O   O1465     1.0  0.74892  0.73327  0.60386  1.0000
  H   H1139     1.0  0.56907  0.78414  0.76908  1.0000
  H   H1140     1.0  0.57289  0.71892  0.76835  1.0000
  O   O1466     1.0  0.55158  0.75069  0.76269  1.0000
  H   H1141     1.0  0.97639  0.51666  0.60241  1.0000
  H   H1142     1.0  0.98608  0.51786  0.63341  1.0000
  O   O1467     1.0  0.96080  0.50753  0.61955  1.0000
  H   H1143     1.0  0.71997  0.56176  0.70509  1.0000
  H   H1144     1.0  0.77644  0.57831  0.70418  1.0000
  O   O1468     1.0  0.75390  0.54841  0.70985  1.0000
  H   H1145     1.0  0.79605  0.61582  0.75020  1.0000
  H   H1146     1.0  0.77668  0.55485  0.76168  1.0000
  O   O1469     1.0  0.78008  0.59735  0.76545  1.0000
  H   H1147     1.0  0.54087  0.79544  0.00872  1.0000
  H   H1148     1.0  0.54450  0.74434  0.98885  1.0000
  O   O1470     1.0  0.56168  0.77958  0.99319  1.0000
  H   H1149     1.0  0.88177  0.68882  0.87887  1.0000
  H   H1150     1.0  0.84744  0.72840  0.86117  1.0000
  O   O1471     1.0  0.85248  0.71760  0.87983  1.0000
  H   H1151     1.0  0.53078  0.98320  0.84217  1.0000
  H   H1152     1.0  0.99832  0.96839  0.86598  1.0000
  O   O1472     1.0  0.53595  0.96840  0.86055  1.0000
  H   H1153     1.0  0.83980  0.66799  0.82018  1.0000
  H   H1154     1.0  0.89003  0.70456  0.82031  1.0000
  O   O1473     1.0  0.85323  0.70851  0.82069  1.0000
  H   H1155     1.0  0.91566  0.81973  0.81159  1.0000
  H   H1156     1.0  0.85170  0.82416  0.80895  1.0000
  O   O1474     1.0  0.88530  0.84114  0.81655  1.0000
  H   H1157     1.0  0.87217  0.85361  0.86424  1.0000
  H   H1158     1.0  0.86035  0.88530  0.89059  1.0000
  O   O1475     1.0  0.88716  0.86994  0.87974  1.0000
  H   H1159     1.0  0.59855  0.54154  0.91684  1.0000
  H   H1160     1.0  0.65174  0.53617  0.93033  1.0000
  O   O1476     1.0  0.61606  0.55029  0.93258  1.0000
  H   H1161     1.0  0.71509  0.58823  0.85624  1.0000
  H   H1162     1.0  0.69296  0.58414  0.82857  1.0000
  O   O1477     1.0  0.69074  0.61144  0.84364  1.0000
  H   H1163     1.0  0.58935  0.62941  0.93172  1.0000
  H   H1164     1.0  0.56678  0.68179  0.94541  1.0000
  O   O1478     1.0  0.59831  0.66757  0.93706  1.0000
  H   H1165     1.0  0.89585  0.59688  0.57322  1.0000
  H   H1166     1.0  0.86367  0.54649  0.56528  1.0000
  O   O1479     1.0  0.85892  0.58590  0.56920  1.0000
  H   H1167     1.0  0.52718  0.84303  0.64395  1.0000
  H   H1168     1.0  0.99308  0.79325  0.64785  1.0000
  O   O1480     1.0  0.99460  0.83372  0.65284  1.0000
  H   H1169     1.0  0.50338  0.86775  0.79797  1.0000
  H   H1170     1.0  0.51340  0.93269  0.79737  1.0000
  O   O1481     1.0  0.51678  0.89789  0.78639  1.0000
  H   H1171     1.0  0.77741  0.80385  0.70822  1.0000
  H   H1172     1.0  0.79896  0.76062  0.68956  1.0000
  O   O1482     1.0  0.77100  0.76487  0.70247  1.0000
  H   H1173     1.0  0.85741  0.96302  0.83059  1.0000
  H   H1174     1.0  0.89139  0.91015  0.82102  1.0000
  O   O1483     1.0  0.89205  0.95264  0.82237  1.0000
  H   H1175     1.0  0.83686  0.62028  0.54148  1.0000
  H   H1176     1.0  0.79100  0.65823  0.52865  1.0000
  O   O1484     1.0  0.81968  0.63205  0.52484  1.0000
  H   H1177     1.0  0.75986  0.51922  0.63244  1.0000
  H   H1178     1.0  0.77945  0.97740  0.65387  1.0000
  O   O1485     1.0  0.78635  0.98907  0.63590  1.0000
  H   H1179     1.0  0.61804  0.83513  0.79755  1.0000
  H   H1180     1.0  0.57874  0.87378  0.78329  1.0000
  O   O1486     1.0  0.60764  0.84834  0.78091  1.0000
  H   H1181     1.0  0.52038  0.92673  0.75930  1.0000
  H   H1182     1.0  0.99729  0.98440  0.75124  1.0000
  O   O1487     1.0  0.52158  0.95725  0.74532  1.0000
  H   H1183     1.0  0.96308  0.61485  0.54906  1.0000
  H   H1184     1.0  0.99179  0.60367  0.57483  1.0000
  O   O1488     1.0  0.96011  0.61994  0.56778  1.0000
  H   H1185     1.0  0.62336  0.55533  0.68836  1.0000
  H   H1186     1.0  0.64235  0.51708  0.71079  1.0000
  O   O1489     1.0  0.65169  0.52902  0.69335  1.0000
  H   H1187     1.0  0.66135  0.92312  0.65764  1.0000
  H   H1188     1.0  0.65721  0.96479  0.68089  1.0000
  O   O1490     1.0  0.67491  0.92904  0.67475  1.0000
  H   H1189     1.0  0.65757  0.87353  0.75230  1.0000
  H   H1190     1.0  0.71078  0.86981  0.73622  1.0000
  O   O1491     1.0  0.67530  0.88047  0.73534  1.0000
  H   H1191     1.0  0.83364  0.69435  0.74760  1.0000
  H   H1192     1.0  0.79695  0.70096  0.72369  1.0000
  O   O1492     1.0  0.82067  0.67346  0.73194  1.0000
  H   H1193     1.0  0.53294  0.87741  0.57361  1.0000
  H   H1194     1.0  0.57893  0.89538  0.55416  1.0000
  O   O1493     1.0  0.54647  0.90656  0.56206  1.0000
  H   H1195     1.0  0.75114  0.65395  0.91330  1.0000
  H   H1196     1.0  0.80324  0.66783  0.89706  1.0000
  O   O1494     1.0  0.77748  0.64050  0.90181  1.0000
  H   H1197     1.0  0.93968  0.52450  0.89144  1.0000
  H   H1198     1.0  0.94893  0.53002  0.92269  1.0000
  O   O1495     1.0  0.94776  0.55148  0.90532  1.0000
  H   H1199     1.0  0.90268  0.78774  0.68509  1.0000
  H   H1200     1.0  0.95547  0.82838  0.68382  1.0000
  O   O1496     1.0  0.93151  0.80962  0.69495  1.0000
  H   H1201     1.0  0.91285  0.88158  0.57121  1.0000
  H   H1202     1.0  0.94229  0.93871  0.56391  1.0000
  O   O1497     1.0  0.91448  0.91147  0.55831  1.0000
  H   H1203     1.0  0.56030  0.52873  0.66414  1.0000
  H   H1204     1.0  0.53095  0.97259  0.67145  1.0000
  O   O1498     1.0  0.54674  0.99503  0.65637  1.0000
  H   H1205     1.0  0.82696  0.99467  0.96278  1.0000
  H   H1206     1.0  0.84092  0.93254  0.97581  1.0000
  O   O1499     1.0  0.85347  0.96071  0.96277  1.0000
  H   H1207     1.0  0.99467  0.79168  0.82999  1.0000
  H   H1208     1.0  0.99352  0.77070  0.80001  1.0000
  O   O1500     1.0  0.98789  0.80118  0.81231  1.0000
  H   H1209     1.0  0.73412  0.94089  0.68534  1.0000
  H   H1210     1.0  0.76866  0.98339  0.69844  1.0000
  O   O1501     1.0  0.77091  0.94744  0.68898  1.0000
  H   H1211     1.0  0.74669  0.66072  0.65607  1.0000
  H   H1212     1.0  0.80603  0.67807  0.65829  1.0000
  O   O1502     1.0  0.78129  0.64722  0.65871  1.0000
  O   O1503     1.0  0.61028  0.54251  0.78519  1.0000
  H   H1213     1.0  0.60345  0.58352  0.78120  1.0000
  H   H1214     1.0  0.61497  0.52757  0.76783  1.0000
  O   O1504     1.0  0.99932  0.76953  0.86613  1.0000
  H   H1215     1.0  0.52377  0.77878  0.88005  1.0000
  H   H1216     1.0  0.98246  0.73321  0.86674  1.0000
  O   O1505     1.0  0.92868  0.64218  0.87775  1.0000
  H   H1217     1.0  0.93208  0.60388  0.88599  1.0000
  H   H1218     1.0  0.94954  0.64251  0.86065  1.0000
  O   O1506     1.0  0.92970  0.88548  0.62455  1.0000
  H   H1219     1.0  0.95383  0.87079  0.63762  1.0000
  H   H1220     1.0  0.93691  0.92473  0.61887  1.0000
  O   O1507     1.0  0.92559  0.77994  0.96154  1.0000
  H   H1221     1.0  0.89178  0.76238  0.96653  1.0000
  H   H1222     1.0  0.93150  0.78839  0.94258  1.0000
  O   O1508     1.0  0.74273  0.71073  0.52414  1.0000
  H   H1223     1.0  0.71869  0.71008  0.53904  1.0000
  H   H1224     1.0  0.75429  0.74806  0.52148  1.0000
  O   O1509     1.0  0.78255  0.78665  0.92803  1.0000
  H   H1225     1.0  0.76591  0.78345  0.91155  1.0000
  H   H1226     1.0  0.80328  0.82061  0.92683  1.0000
  O   O1510     1.0  0.65965  0.88087  0.53221  1.0000
  H   H1227     1.0  0.66696  0.86691  0.55015  1.0000
  H   H1228     1.0  0.68825  0.90810  0.53129  1.0000
  O   O1511     1.0  0.80726  0.86995  0.99478  1.0000
  H   H1229     1.0  0.79565  0.89459  0.00949  1.0000
  H   H1230     1.0  0.77718  0.85335  0.98618  1.0000
  O   O1512     1.0  0.61991  0.52790  0.57027  1.0000
  H   H1231     1.0  0.65229  0.53929  0.56261  1.0000
  H   H1232     1.0  0.60294  0.51885  0.55405  1.0000
